version 2
run AODV-0-20251227-17:24:30-1146
attr configname AODV
attr datetime 20251227-17:24:30
attr experiment AODV
attr inifile netconf.ini
attr iterationvars ""
attr iterationvarsf ""
attr measurement ""
attr network ManetNet
attr processid 1146
attr repetition 0
attr replication #0
attr resultdir results
attr runnumber 0
attr seedset 0
param **.routingApp.typename "\"Aodv\""
param *.numMobile 7
param **.wlan[*].typename "\"Ieee80211Interface\""
param **.wlan[*].mgmtType "\"Ieee80211MgmtAdhoc\""
param **.wlan[*].mac.opMode "\"g(54Mbps)\""
param **.wlan[*].radio.typename "\"Ieee80211Radio\""
param **.wlan[*].radio.transmitter.power 20mW
param **.wlan[*].radio.transmitter.bitrate 54Mbps
param **.wlan[*].radio.receiver.sensitivity -85dBm
param **.wlan[*].radio.receiver.snirThreshold 4dB
param **.wlan[*].radio.transmitter.communicationRange 400m
param **.nodoMovil[*].mobility.typename "\"RandomWaypointMobility\""
param **.nodoMovil[*].mobility.initialX "uniform(0m, 1200m)"
param **.nodoMovil[*].mobility.initialY "uniform(0m, 600m)"
param **.nodoMovil[*].mobility.initialZ 0m
param **.nodoMovil[*].mobility.speed "uniform(1mps, 10mps)"
param **.nodoMovil[*].mobility.waitTime 0s
param **.mobility.constraintAreaMinX 0m
param **.mobility.constraintAreaMinY 0m
param **.mobility.constraintAreaMinZ 0m
param **.mobility.constraintAreaMaxX 1200m
param **.mobility.constraintAreaMaxY 600m
param **.mobility.constraintAreaMaxZ 0m
param **.nodoFijo*.mobility.typename "\"StationaryMobility\""
param **.nodoFijo1.mobility.initialX 0m
param **.nodoFijo1.mobility.initialY 300m
param **.nodoFijo2.mobility.initialX 1200m
param **.nodoFijo2.mobility.initialY 300m
param **.nodoMovil[*].numApps 1
param **.nodoMovil[*].app[0].typename "\"UdpBasicApp\""
param **.nodoMovil[*].app[0].destAddresses "\"nodoMovil[0] nodoMovil[1] nodoMovil[2] nodoMovil[3] nodoMovil[4] nodoMovil[5]\""
param **.nodoMovil[*].app[0].destPort 4000
param **.nodoMovil[*].app[0].startTime uniform(5s,10s)
param **.nodoMovil[*].app[0].messageLength 256B
param **.nodoMovil[*].app[0].sendInterval 50ms
param **.nodoFijo1.numApps 1
param **.nodoFijo2.numApps 1
param **.nodoFijo1.app[0].typename "\"UdpBasicApp\""
param **.nodoFijo1.app[0].destAddresses "\"nodoFijo2\""
param **.nodoFijo1.app[0].destPort 5000
param **.nodoFijo1.app[0].startTime 5s
param **.nodoFijo1.app[0].messageLength 512B
param **.nodoFijo1.app[0].sendInterval 20ms
param **.nodoFijo2.app[0].typename "\"UdpSink\""
param **.nodoFijo2.app[0].localPort 5000

vector 0 ManetNet.nodoFijo1.wlan[0].radio radioMode:vector ETV
attr interpolationmode sample-hold
attr source radioModeChanged
attr title "Radio mode, vector"
vector 1 ManetNet.nodoFijo1.wlan[0].radio radioChannel:vector ETV
attr interpolationmode sample-hold
attr source radioChannelChanged
attr title "Radio channel, vector"
vector 2 ManetNet.nodoFijo2.wlan[0].radio radioMode:vector ETV
attr interpolationmode sample-hold
attr source radioModeChanged
attr title "Radio mode, vector"
vector 3 ManetNet.nodoFijo2.wlan[0].radio radioChannel:vector ETV
attr interpolationmode sample-hold
attr source radioChannelChanged
attr title "Radio channel, vector"
vector 4 ManetNet.nodoMovil[0].wlan[0].radio radioMode:vector ETV
attr interpolationmode sample-hold
attr source radioModeChanged
attr title "Radio mode, vector"
vector 5 ManetNet.nodoMovil[0].wlan[0].radio radioChannel:vector ETV
attr interpolationmode sample-hold
attr source radioChannelChanged
attr title "Radio channel, vector"
vector 6 ManetNet.nodoMovil[1].wlan[0].radio radioMode:vector ETV
attr interpolationmode sample-hold
attr source radioModeChanged
attr title "Radio mode, vector"
vector 7 ManetNet.nodoMovil[1].wlan[0].radio radioChannel:vector ETV
attr interpolationmode sample-hold
attr source radioChannelChanged
attr title "Radio channel, vector"
vector 8 ManetNet.nodoMovil[2].wlan[0].radio radioMode:vector ETV
attr interpolationmode sample-hold
attr source radioModeChanged
attr title "Radio mode, vector"
vector 9 ManetNet.nodoMovil[2].wlan[0].radio radioChannel:vector ETV
attr interpolationmode sample-hold
attr source radioChannelChanged
attr title "Radio channel, vector"
vector 10 ManetNet.nodoMovil[3].wlan[0].radio radioMode:vector ETV
attr interpolationmode sample-hold
attr source radioModeChanged
attr title "Radio mode, vector"
vector 11 ManetNet.nodoMovil[3].wlan[0].radio radioChannel:vector ETV
attr interpolationmode sample-hold
attr source radioChannelChanged
attr title "Radio channel, vector"
vector 12 ManetNet.nodoMovil[4].wlan[0].radio radioMode:vector ETV
attr interpolationmode sample-hold
attr source radioModeChanged
attr title "Radio mode, vector"
vector 13 ManetNet.nodoMovil[4].wlan[0].radio radioChannel:vector ETV
attr interpolationmode sample-hold
attr source radioChannelChanged
attr title "Radio channel, vector"
vector 14 ManetNet.nodoMovil[5].wlan[0].radio radioMode:vector ETV
attr interpolationmode sample-hold
attr source radioModeChanged
attr title "Radio mode, vector"
vector 15 ManetNet.nodoMovil[5].wlan[0].radio radioChannel:vector ETV
attr interpolationmode sample-hold
attr source radioChannelChanged
attr title "Radio channel, vector"
vector 16 ManetNet.nodoMovil[6].wlan[0].radio radioMode:vector ETV
attr interpolationmode sample-hold
attr source radioModeChanged
attr title "Radio mode, vector"
vector 17 ManetNet.nodoMovil[6].wlan[0].radio radioChannel:vector ETV
attr interpolationmode sample-hold
attr source radioChannelChanged
attr title "Radio channel, vector"
vector 18 ManetNet.nodoFijo1.wlan[0].radio receptionState:vector ETV
attr interpolationmode sample-hold
attr source receptionStateChanged
attr title "Radio reception state, vector"
vector 19 ManetNet.nodoFijo2.wlan[0].radio receptionState:vector ETV
attr interpolationmode sample-hold
attr source receptionStateChanged
attr title "Radio reception state, vector"
vector 20 ManetNet.nodoMovil[0].wlan[0].radio receptionState:vector ETV
attr interpolationmode sample-hold
attr source receptionStateChanged
attr title "Radio reception state, vector"
vector 21 ManetNet.nodoMovil[1].wlan[0].radio receptionState:vector ETV
attr interpolationmode sample-hold
attr source receptionStateChanged
attr title "Radio reception state, vector"
vector 22 ManetNet.nodoMovil[2].wlan[0].radio receptionState:vector ETV
attr interpolationmode sample-hold
attr source receptionStateChanged
attr title "Radio reception state, vector"
vector 23 ManetNet.nodoMovil[3].wlan[0].radio receptionState:vector ETV
attr interpolationmode sample-hold
attr source receptionStateChanged
attr title "Radio reception state, vector"
vector 24 ManetNet.nodoMovil[4].wlan[0].radio receptionState:vector ETV
attr interpolationmode sample-hold
attr source receptionStateChanged
attr title "Radio reception state, vector"
vector 25 ManetNet.nodoMovil[5].wlan[0].radio receptionState:vector ETV
attr interpolationmode sample-hold
attr source receptionStateChanged
attr title "Radio reception state, vector"
vector 26 ManetNet.nodoMovil[6].wlan[0].radio receptionState:vector ETV
attr interpolationmode sample-hold
attr source receptionStateChanged
attr title "Radio reception state, vector"
vector 27 ManetNet.nodoFijo1.wlan[0].mac.dcf.recoveryProcedure contentionWindowChanged:vector ETV
attr interpolationmode sample-hold
attr title "contention window, vector"
vector 28 ManetNet.nodoFijo2.wlan[0].mac.dcf.recoveryProcedure contentionWindowChanged:vector ETV
attr interpolationmode sample-hold
attr title "contention window, vector"
vector 29 ManetNet.nodoMovil[0].wlan[0].mac.dcf.recoveryProcedure contentionWindowChanged:vector ETV
attr interpolationmode sample-hold
attr title "contention window, vector"
vector 30 ManetNet.nodoMovil[1].wlan[0].mac.dcf.recoveryProcedure contentionWindowChanged:vector ETV
attr interpolationmode sample-hold
attr title "contention window, vector"
vector 31 ManetNet.nodoMovil[2].wlan[0].mac.dcf.recoveryProcedure contentionWindowChanged:vector ETV
attr interpolationmode sample-hold
attr title "contention window, vector"
vector 32 ManetNet.nodoMovil[3].wlan[0].mac.dcf.recoveryProcedure contentionWindowChanged:vector ETV
attr interpolationmode sample-hold
attr title "contention window, vector"
vector 33 ManetNet.nodoMovil[4].wlan[0].mac.dcf.recoveryProcedure contentionWindowChanged:vector ETV
attr interpolationmode sample-hold
attr title "contention window, vector"
vector 34 ManetNet.nodoMovil[5].wlan[0].mac.dcf.recoveryProcedure contentionWindowChanged:vector ETV
attr interpolationmode sample-hold
attr title "contention window, vector"
vector 35 ManetNet.nodoMovil[6].wlan[0].mac.dcf.recoveryProcedure contentionWindowChanged:vector ETV
attr interpolationmode sample-hold
attr title "contention window, vector"
vector 36 ManetNet.nodoFijo1.app[0] packetSent:vector(packetBytes) ETV
attr interpolationmode none
attr source packetSent
attr title "packets sent, vector(packetBytes)"
vector 37 ManetNet.nodoFijo1.udp packetSent:vector(packetBytes) ETV
attr interpolationmode none
attr source packetSent
attr title "packets sent, vector(packetBytes)"
vector 38 ManetNet.nodoFijo1.ipv4.arp arpRequestSent:vector(packetBytes) ETV
attr source arpRequestSent
attr title "ARP request sent, vector(packetBytes)"
vector 39 ManetNet.nodoFijo1.wlan[0].mac packetReceivedFromUpper:vector(packetBytes) ETV
attr interpolationmode none
attr title "packets received from upper layer, vector(packetBytes)"
vector 40 ManetNet.nodoFijo1.wlan[0].mac.dcf.channelAccess.pendingQueue packetPushed:vector(packetBytes) ETV
attr interpolationmode none
attr title "packet pushed, vector(packetBytes)"
vector 41 ManetNet.nodoFijo1.wlan[0].mac.dcf.channelAccess.pendingQueue queueLength:vector ETV
attr interpolationmode sample-hold
attr source "count(packetPushed) - count(packetPopped) - count(packetRemoved) - count(packetDropped)"
attr title "queue length, vector"
vector 42 ManetNet.nodoFijo1.wlan[0].mac.dcf.channelAccess.contention backoffPeriodGenerated:vector ETV
attr interpolationmode none
attr title "backoff periods, vector"
vector 43 ManetNet.nodoFijo1.wlan[0].mac.dcf.channelAccess.contention backoffActive:vector ETV
attr interpolationmode sample-hold
attr source count(backoffStarted)-count(backoffStopped)
attr title "backoff active, vector"
vector 44 ManetNet.nodoFijo1.wlan[0].mac.dcf.channelAccess.pendingQueue packetPopped:vector(packetBytes) ETV
attr interpolationmode none
attr title "packet popped, vector(packetBytes)"
vector 45 ManetNet.nodoFijo1.wlan[0].mac.dcf.channelAccess.pendingQueue queueingTime:vector ETV
attr interpolationmode none
attr source queueingTime(packetPopped)
attr title "queueing times, vector"
attr unit s
vector 46 ManetNet.nodoFijo1.wlan[0].mac.dcf.channelAccess.inProgressFrames queueLength:vector ETV
attr interpolationmode sample-hold
attr source "count(packetEnqueued) - count(packetDequeued)"
attr title "queue length, vector"
vector 47 ManetNet.nodoFijo1.wlan[0].mac.dcf datarateSelected:vector ETV
attr interpolationmode none
attr title "datarates selected, vector"
vector 48 ManetNet.nodoFijo1.wlan[0].mac packetSentToLower:vector(packetBytes) ETV
attr interpolationmode none
attr title "packets sent to lower layer, vector(packetBytes)"
vector 49 ManetNet.nodoFijo1.wlan[0].mac.dcf frameSequenceActive:vector ETV
attr interpolationmode sample-hold
attr source count(frameSequenceStarted)-count(frameSequenceFinished)
attr title "frame sequence active, vector"
vector 50 ManetNet.nodoFijo1.wlan[0].radio transmissionState:vector ETV
attr interpolationmode sample-hold
attr source transmissionStateChanged
attr title "Radio transmission state, vector"
vector 51 ManetNet.nodoFijo1.wlan[0].mac.dcf packetSentToPeer:vector(packetBytes) ETV
attr interpolationmode none
attr title "packets sent, vector(packetBytes)"
vector 52 ManetNet.nodoFijo1.wlan[0].mac.dcf packetSentToPeerMulticast:vector(packetBytes) ETV
attr interpolationmode none
attr source ieee80211Multicast(packetSentToPeer)
attr title "packets sent: multicast, vector(packetBytes)"
vector 53 ManetNet.nodoFijo1.wlan[0].mac.dcf packetSentToPeerBroadcast:vector(packetBytes) ETV
attr interpolationmode none
attr source ieee80211Broadcast(packetSentToPeer)
attr title "packets sent: broadcast , vector(packetBytes)"
vector 54 ManetNet.nodoFijo1.wlan[0].mac.dcf packetSentToPeerWithoutRetry:vector(packetBytes) ETV
attr interpolationmode none
attr source ieee80211NotRetry(packetSentToPeer)
attr title "packets sent: without retry, vector(packetBytes)"
vector 55 ManetNet.nodoFijo1.wlan[0].mac.dcf.channelAccess.inProgressFrames queueingTime:vector ETV
attr interpolationmode none
attr source queueingTime(packetDequeued)
attr title "queueing times, vector"
vector 56 ManetNet.nodoMovil[0].wlan[0].mac packetReceivedFromLower:vector(packetBytes) ETV
attr interpolationmode none
attr title "packets received from lower layer, vector(packetBytes)"
vector 57 ManetNet.nodoMovil[0].wlan[0].mac.dcf packetReceivedFromPeer:vector(packetBytes) ETV
attr interpolationmode none
attr title "packets received, vector(packetBytes)"
vector 58 ManetNet.nodoMovil[0].wlan[0].mac.dcf packetReceivedFromPeerMulticast:vector(packetBytes) ETV
attr interpolationmode none
attr source ieee80211Multicast(packetReceivedFromPeer)
attr title "packets received: multicast, vector(packetBytes)"
vector 59 ManetNet.nodoMovil[0].wlan[0].mac.dcf packetReceivedFromPeerBroadcast:vector(packetBytes) ETV
attr interpolationmode none
attr source ieee80211Broadcast(packetReceivedFromPeer)
attr title "packets received: broadcast, vector(packetBytes)"
vector 60 ManetNet.nodoMovil[0].wlan[0].mac.dcf packetReceivedFromPeerWithoutRetry:vector(packetBytes) ETV
attr interpolationmode none
attr source ieee80211NotRetry(packetReceivedFromPeer)
attr title "packets received: without retry, vector(packetBytes)"
vector 61 ManetNet.nodoMovil[0].wlan[0].mac packetSentToUpper:vector(packetBytes) ETV
attr interpolationmode none
attr title "packets sent to upper layer, vector(packetBytes)"
vector 62 ManetNet.nodoMovil[1].wlan[0].mac packetReceivedFromLower:vector(packetBytes) ETV
attr interpolationmode none
attr title "packets received from lower layer, vector(packetBytes)"
vector 63 ManetNet.nodoMovil[1].wlan[0].mac.dcf packetReceivedFromPeer:vector(packetBytes) ETV
attr interpolationmode none
attr title "packets received, vector(packetBytes)"
vector 64 ManetNet.nodoMovil[1].wlan[0].mac.dcf packetReceivedFromPeerMulticast:vector(packetBytes) ETV
attr interpolationmode none
attr source ieee80211Multicast(packetReceivedFromPeer)
attr title "packets received: multicast, vector(packetBytes)"
vector 65 ManetNet.nodoMovil[1].wlan[0].mac.dcf packetReceivedFromPeerBroadcast:vector(packetBytes) ETV
attr interpolationmode none
attr source ieee80211Broadcast(packetReceivedFromPeer)
attr title "packets received: broadcast, vector(packetBytes)"
vector 66 ManetNet.nodoMovil[1].wlan[0].mac.dcf packetReceivedFromPeerWithoutRetry:vector(packetBytes) ETV
attr interpolationmode none
attr source ieee80211NotRetry(packetReceivedFromPeer)
attr title "packets received: without retry, vector(packetBytes)"
vector 67 ManetNet.nodoMovil[1].wlan[0].mac packetSentToUpper:vector(packetBytes) ETV
attr interpolationmode none
attr title "packets sent to upper layer, vector(packetBytes)"
vector 68 ManetNet.nodoMovil[2].wlan[0].mac packetReceivedFromLower:vector(packetBytes) ETV
attr interpolationmode none
attr title "packets received from lower layer, vector(packetBytes)"
vector 69 ManetNet.nodoMovil[2].wlan[0].mac.dcf packetReceivedFromPeer:vector(packetBytes) ETV
attr interpolationmode none
attr title "packets received, vector(packetBytes)"
vector 70 ManetNet.nodoMovil[2].wlan[0].mac.dcf packetReceivedFromPeerMulticast:vector(packetBytes) ETV
attr interpolationmode none
attr source ieee80211Multicast(packetReceivedFromPeer)
attr title "packets received: multicast, vector(packetBytes)"
vector 71 ManetNet.nodoMovil[2].wlan[0].mac.dcf packetReceivedFromPeerBroadcast:vector(packetBytes) ETV
attr interpolationmode none
attr source ieee80211Broadcast(packetReceivedFromPeer)
attr title "packets received: broadcast, vector(packetBytes)"
vector 72 ManetNet.nodoMovil[2].wlan[0].mac.dcf packetReceivedFromPeerWithoutRetry:vector(packetBytes) ETV
attr interpolationmode none
attr source ieee80211NotRetry(packetReceivedFromPeer)
attr title "packets received: without retry, vector(packetBytes)"
vector 73 ManetNet.nodoMovil[2].wlan[0].mac packetSentToUpper:vector(packetBytes) ETV
attr interpolationmode none
attr title "packets sent to upper layer, vector(packetBytes)"
vector 74 ManetNet.nodoMovil[6].wlan[0].mac packetReceivedFromLower:vector(packetBytes) ETV
attr interpolationmode none
attr title "packets received from lower layer, vector(packetBytes)"
vector 75 ManetNet.nodoMovil[6].wlan[0].mac.dcf packetReceivedFromPeer:vector(packetBytes) ETV
attr interpolationmode none
attr title "packets received, vector(packetBytes)"
vector 76 ManetNet.nodoMovil[6].wlan[0].mac.dcf packetReceivedFromPeerMulticast:vector(packetBytes) ETV
attr interpolationmode none
attr source ieee80211Multicast(packetReceivedFromPeer)
attr title "packets received: multicast, vector(packetBytes)"
vector 77 ManetNet.nodoMovil[6].wlan[0].mac.dcf packetReceivedFromPeerBroadcast:vector(packetBytes) ETV
attr interpolationmode none
attr source ieee80211Broadcast(packetReceivedFromPeer)
attr title "packets received: broadcast, vector(packetBytes)"
vector 78 ManetNet.nodoMovil[6].wlan[0].mac.dcf packetReceivedFromPeerWithoutRetry:vector(packetBytes) ETV
attr interpolationmode none
attr source ieee80211NotRetry(packetReceivedFromPeer)
attr title "packets received: without retry, vector(packetBytes)"
vector 79 ManetNet.nodoMovil[6].wlan[0].mac packetSentToUpper:vector(packetBytes) ETV
attr interpolationmode none
attr title "packets sent to upper layer, vector(packetBytes)"
vector 80 ManetNet.nodoMovil[4].wlan[0].mac packetReceivedFromLower:vector(packetBytes) ETV
attr interpolationmode none
attr title "packets received from lower layer, vector(packetBytes)"
vector 81 ManetNet.nodoMovil[4].wlan[0].mac.dcf packetReceivedFromPeer:vector(packetBytes) ETV
attr interpolationmode none
attr title "packets received, vector(packetBytes)"
vector 82 ManetNet.nodoMovil[4].wlan[0].mac.dcf packetReceivedFromPeerMulticast:vector(packetBytes) ETV
attr interpolationmode none
attr source ieee80211Multicast(packetReceivedFromPeer)
attr title "packets received: multicast, vector(packetBytes)"
vector 83 ManetNet.nodoMovil[4].wlan[0].mac.dcf packetReceivedFromPeerBroadcast:vector(packetBytes) ETV
attr interpolationmode none
attr source ieee80211Broadcast(packetReceivedFromPeer)
attr title "packets received: broadcast, vector(packetBytes)"
vector 84 ManetNet.nodoMovil[4].wlan[0].mac.dcf packetReceivedFromPeerWithoutRetry:vector(packetBytes) ETV
attr interpolationmode none
attr source ieee80211NotRetry(packetReceivedFromPeer)
attr title "packets received: without retry, vector(packetBytes)"
vector 85 ManetNet.nodoMovil[4].wlan[0].mac packetSentToUpper:vector(packetBytes) ETV
attr interpolationmode none
attr title "packets sent to upper layer, vector(packetBytes)"
vector 86 ManetNet.nodoMovil[5].wlan[0].mac packetReceivedFromLower:vector(packetBytes) ETV
attr interpolationmode none
attr title "packets received from lower layer, vector(packetBytes)"
vector 87 ManetNet.nodoMovil[5].wlan[0].mac.dcf packetReceivedFromPeer:vector(packetBytes) ETV
attr interpolationmode none
attr title "packets received, vector(packetBytes)"
vector 88 ManetNet.nodoMovil[5].wlan[0].mac.dcf packetReceivedFromPeerMulticast:vector(packetBytes) ETV
attr interpolationmode none
attr source ieee80211Multicast(packetReceivedFromPeer)
attr title "packets received: multicast, vector(packetBytes)"
vector 89 ManetNet.nodoMovil[5].wlan[0].mac.dcf packetReceivedFromPeerBroadcast:vector(packetBytes) ETV
attr interpolationmode none
attr source ieee80211Broadcast(packetReceivedFromPeer)
attr title "packets received: broadcast, vector(packetBytes)"
vector 90 ManetNet.nodoMovil[5].wlan[0].mac.dcf packetReceivedFromPeerWithoutRetry:vector(packetBytes) ETV
attr interpolationmode none
attr source ieee80211NotRetry(packetReceivedFromPeer)
attr title "packets received: without retry, vector(packetBytes)"
vector 91 ManetNet.nodoMovil[5].wlan[0].mac packetSentToUpper:vector(packetBytes) ETV
attr interpolationmode none
attr title "packets sent to upper layer, vector(packetBytes)"
vector 92 ManetNet.nodoMovil[3].wlan[0].mac packetReceivedFromLower:vector(packetBytes) ETV
attr interpolationmode none
attr title "packets received from lower layer, vector(packetBytes)"
vector 93 ManetNet.nodoMovil[3].wlan[0].mac.dcf packetReceivedFromPeer:vector(packetBytes) ETV
attr interpolationmode none
attr title "packets received, vector(packetBytes)"
vector 94 ManetNet.nodoMovil[3].wlan[0].mac.dcf packetReceivedFromPeerMulticast:vector(packetBytes) ETV
attr interpolationmode none
attr source ieee80211Multicast(packetReceivedFromPeer)
attr title "packets received: multicast, vector(packetBytes)"
vector 95 ManetNet.nodoMovil[3].wlan[0].mac.dcf packetReceivedFromPeerBroadcast:vector(packetBytes) ETV
attr interpolationmode none
attr source ieee80211Broadcast(packetReceivedFromPeer)
attr title "packets received: broadcast, vector(packetBytes)"
vector 96 ManetNet.nodoMovil[3].wlan[0].mac.dcf packetReceivedFromPeerWithoutRetry:vector(packetBytes) ETV
attr interpolationmode none
attr source ieee80211NotRetry(packetReceivedFromPeer)
attr title "packets received: without retry, vector(packetBytes)"
vector 97 ManetNet.nodoMovil[3].wlan[0].mac packetSentToUpper:vector(packetBytes) ETV
attr interpolationmode none
attr title "packets sent to upper layer, vector(packetBytes)"
vector 98 ManetNet.nodoMovil[3].app[0] packetSent:vector(packetBytes) ETV
attr interpolationmode none
attr source packetSent
attr title "packets sent, vector(packetBytes)"
vector 99 ManetNet.nodoMovil[3].udp packetSent:vector(packetBytes) ETV
attr interpolationmode none
attr source packetSent
attr title "packets sent, vector(packetBytes)"
vector 100 ManetNet.nodoMovil[3].ipv4.arp arpRequestSent:vector(packetBytes) ETV
attr source arpRequestSent
attr title "ARP request sent, vector(packetBytes)"
vector 101 ManetNet.nodoMovil[3].wlan[0].mac packetReceivedFromUpper:vector(packetBytes) ETV
attr interpolationmode none
attr title "packets received from upper layer, vector(packetBytes)"
vector 102 ManetNet.nodoMovil[3].wlan[0].mac.dcf.channelAccess.pendingQueue packetPushed:vector(packetBytes) ETV
attr interpolationmode none
attr title "packet pushed, vector(packetBytes)"
vector 103 ManetNet.nodoMovil[3].wlan[0].mac.dcf.channelAccess.pendingQueue queueLength:vector ETV
attr interpolationmode sample-hold
attr source "count(packetPushed) - count(packetPopped) - count(packetRemoved) - count(packetDropped)"
attr title "queue length, vector"
vector 104 ManetNet.nodoMovil[3].wlan[0].mac.dcf.channelAccess.contention backoffPeriodGenerated:vector ETV
attr interpolationmode none
attr title "backoff periods, vector"
vector 105 ManetNet.nodoMovil[3].wlan[0].mac.dcf.channelAccess.contention backoffActive:vector ETV
attr interpolationmode sample-hold
attr source count(backoffStarted)-count(backoffStopped)
attr title "backoff active, vector"
vector 106 ManetNet.nodoMovil[3].wlan[0].mac.dcf.channelAccess.pendingQueue packetPopped:vector(packetBytes) ETV
attr interpolationmode none
attr title "packet popped, vector(packetBytes)"
vector 107 ManetNet.nodoMovil[3].wlan[0].mac.dcf.channelAccess.pendingQueue queueingTime:vector ETV
attr interpolationmode none
attr source queueingTime(packetPopped)
attr title "queueing times, vector"
attr unit s
vector 108 ManetNet.nodoMovil[3].wlan[0].mac.dcf.channelAccess.inProgressFrames queueLength:vector ETV
attr interpolationmode sample-hold
attr source "count(packetEnqueued) - count(packetDequeued)"
attr title "queue length, vector"
vector 109 ManetNet.nodoMovil[3].wlan[0].mac.dcf datarateSelected:vector ETV
attr interpolationmode none
attr title "datarates selected, vector"
vector 110 ManetNet.nodoMovil[3].wlan[0].mac packetSentToLower:vector(packetBytes) ETV
attr interpolationmode none
attr title "packets sent to lower layer, vector(packetBytes)"
vector 111 ManetNet.nodoMovil[3].wlan[0].mac.dcf frameSequenceActive:vector ETV
attr interpolationmode sample-hold
attr source count(frameSequenceStarted)-count(frameSequenceFinished)
attr title "frame sequence active, vector"
vector 112 ManetNet.nodoMovil[3].wlan[0].radio transmissionState:vector ETV
attr interpolationmode sample-hold
attr source transmissionStateChanged
attr title "Radio transmission state, vector"
vector 113 ManetNet.nodoMovil[3].wlan[0].mac.dcf packetSentToPeer:vector(packetBytes) ETV
attr interpolationmode none
attr title "packets sent, vector(packetBytes)"
vector 114 ManetNet.nodoMovil[3].wlan[0].mac.dcf packetSentToPeerMulticast:vector(packetBytes) ETV
attr interpolationmode none
attr source ieee80211Multicast(packetSentToPeer)
attr title "packets sent: multicast, vector(packetBytes)"
vector 115 ManetNet.nodoMovil[3].wlan[0].mac.dcf packetSentToPeerBroadcast:vector(packetBytes) ETV
attr interpolationmode none
attr source ieee80211Broadcast(packetSentToPeer)
attr title "packets sent: broadcast , vector(packetBytes)"
vector 116 ManetNet.nodoMovil[3].wlan[0].mac.dcf packetSentToPeerWithoutRetry:vector(packetBytes) ETV
attr interpolationmode none
attr source ieee80211NotRetry(packetSentToPeer)
attr title "packets sent: without retry, vector(packetBytes)"
vector 117 ManetNet.nodoMovil[3].wlan[0].mac.dcf.channelAccess.inProgressFrames queueingTime:vector ETV
attr interpolationmode none
attr source queueingTime(packetDequeued)
attr title "queueing times, vector"
vector 118 ManetNet.nodoMovil[5].ipv4.arp arpReplySent:vector(packetBytes) ETV
attr source arpReplySent
attr title "ARP replies sent, vector(packetBytes)"
vector 119 ManetNet.nodoMovil[5].wlan[0].mac packetReceivedFromUpper:vector(packetBytes) ETV
attr interpolationmode none
attr title "packets received from upper layer, vector(packetBytes)"
vector 120 ManetNet.nodoMovil[5].wlan[0].mac.dcf.channelAccess.pendingQueue packetPushed:vector(packetBytes) ETV
attr interpolationmode none
attr title "packet pushed, vector(packetBytes)"
vector 121 ManetNet.nodoMovil[5].wlan[0].mac.dcf.channelAccess.pendingQueue queueLength:vector ETV
attr interpolationmode sample-hold
attr source "count(packetPushed) - count(packetPopped) - count(packetRemoved) - count(packetDropped)"
attr title "queue length, vector"
vector 122 ManetNet.nodoMovil[5].wlan[0].mac.dcf.channelAccess.contention backoffPeriodGenerated:vector ETV
attr interpolationmode none
attr title "backoff periods, vector"
vector 123 ManetNet.nodoMovil[5].wlan[0].mac.dcf.channelAccess.contention backoffActive:vector ETV
attr interpolationmode sample-hold
attr source count(backoffStarted)-count(backoffStopped)
attr title "backoff active, vector"
vector 124 ManetNet.nodoFijo2.wlan[0].mac packetReceivedFromLower:vector(packetBytes) ETV
attr interpolationmode none
attr title "packets received from lower layer, vector(packetBytes)"
vector 125 ManetNet.nodoFijo2.wlan[0].mac.dcf packetReceivedFromPeer:vector(packetBytes) ETV
attr interpolationmode none
attr title "packets received, vector(packetBytes)"
vector 126 ManetNet.nodoFijo2.wlan[0].mac.dcf packetReceivedFromPeerMulticast:vector(packetBytes) ETV
attr interpolationmode none
attr source ieee80211Multicast(packetReceivedFromPeer)
attr title "packets received: multicast, vector(packetBytes)"
vector 127 ManetNet.nodoFijo2.wlan[0].mac.dcf packetReceivedFromPeerBroadcast:vector(packetBytes) ETV
attr interpolationmode none
attr source ieee80211Broadcast(packetReceivedFromPeer)
attr title "packets received: broadcast, vector(packetBytes)"
vector 128 ManetNet.nodoFijo2.wlan[0].mac.dcf packetReceivedFromPeerWithoutRetry:vector(packetBytes) ETV
attr interpolationmode none
attr source ieee80211NotRetry(packetReceivedFromPeer)
attr title "packets received: without retry, vector(packetBytes)"
vector 129 ManetNet.nodoFijo2.wlan[0].mac packetSentToUpper:vector(packetBytes) ETV
attr interpolationmode none
attr title "packets sent to upper layer, vector(packetBytes)"
vector 130 ManetNet.nodoFijo1.wlan[0].mac packetReceivedFromLower:vector(packetBytes) ETV
attr interpolationmode none
attr title "packets received from lower layer, vector(packetBytes)"
vector 131 ManetNet.nodoFijo1.wlan[0].mac.dcf packetReceivedFromPeer:vector(packetBytes) ETV
attr interpolationmode none
attr title "packets received, vector(packetBytes)"
vector 132 ManetNet.nodoFijo1.wlan[0].mac.dcf packetReceivedFromPeerMulticast:vector(packetBytes) ETV
attr interpolationmode none
attr source ieee80211Multicast(packetReceivedFromPeer)
attr title "packets received: multicast, vector(packetBytes)"
vector 133 ManetNet.nodoFijo1.wlan[0].mac.dcf packetReceivedFromPeerBroadcast:vector(packetBytes) ETV
attr interpolationmode none
attr source ieee80211Broadcast(packetReceivedFromPeer)
attr title "packets received: broadcast, vector(packetBytes)"
vector 134 ManetNet.nodoFijo1.wlan[0].mac.dcf packetReceivedFromPeerWithoutRetry:vector(packetBytes) ETV
attr interpolationmode none
attr source ieee80211NotRetry(packetReceivedFromPeer)
attr title "packets received: without retry, vector(packetBytes)"
vector 135 ManetNet.nodoFijo1.wlan[0].mac packetSentToUpper:vector(packetBytes) ETV
attr interpolationmode none
attr title "packets sent to upper layer, vector(packetBytes)"
vector 136 ManetNet.nodoMovil[5].wlan[0].mac.dcf.channelAccess.pendingQueue packetPopped:vector(packetBytes) ETV
attr interpolationmode none
attr title "packet popped, vector(packetBytes)"
vector 137 ManetNet.nodoMovil[5].wlan[0].mac.dcf.channelAccess.pendingQueue queueingTime:vector ETV
attr interpolationmode none
attr source queueingTime(packetPopped)
attr title "queueing times, vector"
attr unit s
vector 138 ManetNet.nodoMovil[5].wlan[0].mac.dcf.channelAccess.inProgressFrames queueLength:vector ETV
attr interpolationmode sample-hold
attr source "count(packetEnqueued) - count(packetDequeued)"
attr title "queue length, vector"
vector 139 ManetNet.nodoMovil[5].wlan[0].mac.dcf datarateSelected:vector ETV
attr interpolationmode none
attr title "datarates selected, vector"
vector 140 ManetNet.nodoMovil[5].wlan[0].mac packetSentToLower:vector(packetBytes) ETV
attr interpolationmode none
attr title "packets sent to lower layer, vector(packetBytes)"
vector 141 ManetNet.nodoMovil[5].wlan[0].mac.dcf frameSequenceActive:vector ETV
attr interpolationmode sample-hold
attr source count(frameSequenceStarted)-count(frameSequenceFinished)
attr title "frame sequence active, vector"
vector 142 ManetNet.nodoMovil[5].wlan[0].radio transmissionState:vector ETV
attr interpolationmode sample-hold
attr source transmissionStateChanged
attr title "Radio transmission state, vector"
vector 143 ManetNet.nodoMovil[5].wlan[0].mac.dcf packetSentToPeer:vector(packetBytes) ETV
attr interpolationmode none
attr title "packets sent, vector(packetBytes)"
vector 144 ManetNet.nodoMovil[5].wlan[0].mac.dcf packetSentToPeerUnicast:vector(packetBytes) ETV
attr interpolationmode none
attr source ieee80211Unicast(packetSentToPeer)
attr title "packets sent: unicast, vector(packetBytes)"
vector 145 ManetNet.nodoMovil[5].wlan[0].mac.dcf packetSentToPeerWithoutRetry:vector(packetBytes) ETV
attr interpolationmode none
attr source ieee80211NotRetry(packetSentToPeer)
attr title "packets sent: without retry, vector(packetBytes)"
vector 146 ManetNet.nodoMovil[5].wlan[0].mac.rx nav:vector ETV
attr interpolationmode linear
attr source navChanged
attr title "network allocation vector, vector"
vector 147 ManetNet.nodoMovil[3].wlan[0].mac.dcf packetReceivedFromPeerUnicast:vector(packetBytes) ETV
attr interpolationmode none
attr source ieee80211Unicast(packetReceivedFromPeer)
attr title "packets received: unicast, vector(packetBytes)"
vector 148 ManetNet.nodoMovil[4].wlan[0].mac.rx nav:vector ETV
attr interpolationmode linear
attr source navChanged
attr title "network allocation vector, vector"
vector 149 ManetNet.nodoMovil[4].wlan[0].mac.dcf packetDrop:vector(packetBytes) ETV
attr interpolationmode none
attr source packetDropped
attr title "packet drops, vector(packetBytes)"
vector 150 ManetNet.nodoMovil[4].wlan[0].mac.dcf packetDropNotAddressedToUs:vector(packetBytes) ETV
attr interpolationmode none
attr source packetDropReasonIsNotAddressedToUs(packetDropped)
attr title "packet drops: not addressed to us, vector(packetBytes)"
vector 151 ManetNet.nodoMovil[4].wlan[0].mac packetDrop:vector(packetBytes) ETV
attr interpolationmode none
attr source packetDropped
attr title "packet drops, vector(packetBytes)"
vector 152 ManetNet.nodoMovil[4].wlan[0].mac packetDropNotAddressedToUs:vector(packetBytes) ETV
attr interpolationmode none
attr source packetDropReasonIsNotAddressedToUs(packetDropped)
attr title "packet drops: not addressed to us, vector(packetBytes)"
vector 153 ManetNet.nodoMovil[6].wlan[0].mac.rx nav:vector ETV
attr interpolationmode linear
attr source navChanged
attr title "network allocation vector, vector"
vector 154 ManetNet.nodoMovil[6].wlan[0].mac.dcf packetDrop:vector(packetBytes) ETV
attr interpolationmode none
attr source packetDropped
attr title "packet drops, vector(packetBytes)"
vector 155 ManetNet.nodoMovil[6].wlan[0].mac.dcf packetDropNotAddressedToUs:vector(packetBytes) ETV
attr interpolationmode none
attr source packetDropReasonIsNotAddressedToUs(packetDropped)
attr title "packet drops: not addressed to us, vector(packetBytes)"
vector 156 ManetNet.nodoMovil[6].wlan[0].mac packetDrop:vector(packetBytes) ETV
attr interpolationmode none
attr source packetDropped
attr title "packet drops, vector(packetBytes)"
vector 157 ManetNet.nodoMovil[6].wlan[0].mac packetDropNotAddressedToUs:vector(packetBytes) ETV
attr interpolationmode none
attr source packetDropReasonIsNotAddressedToUs(packetDropped)
attr title "packet drops: not addressed to us, vector(packetBytes)"
vector 158 ManetNet.nodoMovil[1].wlan[0].mac.rx nav:vector ETV
attr interpolationmode linear
attr source navChanged
attr title "network allocation vector, vector"
vector 159 ManetNet.nodoMovil[1].wlan[0].mac.dcf packetDrop:vector(packetBytes) ETV
attr interpolationmode none
attr source packetDropped
attr title "packet drops, vector(packetBytes)"
vector 160 ManetNet.nodoMovil[1].wlan[0].mac.dcf packetDropNotAddressedToUs:vector(packetBytes) ETV
attr interpolationmode none
attr source packetDropReasonIsNotAddressedToUs(packetDropped)
attr title "packet drops: not addressed to us, vector(packetBytes)"
vector 161 ManetNet.nodoMovil[1].wlan[0].mac packetDrop:vector(packetBytes) ETV
attr interpolationmode none
attr source packetDropped
attr title "packet drops, vector(packetBytes)"
vector 162 ManetNet.nodoMovil[1].wlan[0].mac packetDropNotAddressedToUs:vector(packetBytes) ETV
attr interpolationmode none
attr source packetDropReasonIsNotAddressedToUs(packetDropped)
attr title "packet drops: not addressed to us, vector(packetBytes)"
vector 163 ManetNet.nodoMovil[2].wlan[0].mac.rx nav:vector ETV
attr interpolationmode linear
attr source navChanged
attr title "network allocation vector, vector"
vector 164 ManetNet.nodoMovil[2].wlan[0].mac.dcf packetDrop:vector(packetBytes) ETV
attr interpolationmode none
attr source packetDropped
attr title "packet drops, vector(packetBytes)"
vector 165 ManetNet.nodoMovil[2].wlan[0].mac.dcf packetDropNotAddressedToUs:vector(packetBytes) ETV
attr interpolationmode none
attr source packetDropReasonIsNotAddressedToUs(packetDropped)
attr title "packet drops: not addressed to us, vector(packetBytes)"
vector 166 ManetNet.nodoMovil[2].wlan[0].mac packetDrop:vector(packetBytes) ETV
attr interpolationmode none
attr source packetDropped
attr title "packet drops, vector(packetBytes)"
vector 167 ManetNet.nodoMovil[2].wlan[0].mac packetDropNotAddressedToUs:vector(packetBytes) ETV
attr interpolationmode none
attr source packetDropReasonIsNotAddressedToUs(packetDropped)
attr title "packet drops: not addressed to us, vector(packetBytes)"
vector 168 ManetNet.nodoMovil[0].wlan[0].mac.rx nav:vector ETV
attr interpolationmode linear
attr source navChanged
attr title "network allocation vector, vector"
vector 169 ManetNet.nodoMovil[0].wlan[0].mac.dcf packetDrop:vector(packetBytes) ETV
attr interpolationmode none
attr source packetDropped
attr title "packet drops, vector(packetBytes)"
vector 170 ManetNet.nodoMovil[0].wlan[0].mac.dcf packetDropNotAddressedToUs:vector(packetBytes) ETV
attr interpolationmode none
attr source packetDropReasonIsNotAddressedToUs(packetDropped)
attr title "packet drops: not addressed to us, vector(packetBytes)"
vector 171 ManetNet.nodoMovil[0].wlan[0].mac packetDrop:vector(packetBytes) ETV
attr interpolationmode none
attr source packetDropped
attr title "packet drops, vector(packetBytes)"
vector 172 ManetNet.nodoMovil[0].wlan[0].mac packetDropNotAddressedToUs:vector(packetBytes) ETV
attr interpolationmode none
attr source packetDropReasonIsNotAddressedToUs(packetDropped)
attr title "packet drops: not addressed to us, vector(packetBytes)"
vector 173 ManetNet.nodoFijo2.wlan[0].mac.rx nav:vector ETV
attr interpolationmode linear
attr source navChanged
attr title "network allocation vector, vector"
vector 174 ManetNet.nodoFijo2.wlan[0].mac.dcf packetDrop:vector(packetBytes) ETV
attr interpolationmode none
attr source packetDropped
attr title "packet drops, vector(packetBytes)"
vector 175 ManetNet.nodoFijo2.wlan[0].mac.dcf packetDropNotAddressedToUs:vector(packetBytes) ETV
attr interpolationmode none
attr source packetDropReasonIsNotAddressedToUs(packetDropped)
attr title "packet drops: not addressed to us, vector(packetBytes)"
vector 176 ManetNet.nodoFijo2.wlan[0].mac packetDrop:vector(packetBytes) ETV
attr interpolationmode none
attr source packetDropped
attr title "packet drops, vector(packetBytes)"
vector 177 ManetNet.nodoFijo2.wlan[0].mac packetDropNotAddressedToUs:vector(packetBytes) ETV
attr interpolationmode none
attr source packetDropReasonIsNotAddressedToUs(packetDropped)
attr title "packet drops: not addressed to us, vector(packetBytes)"
vector 178 ManetNet.nodoFijo1.wlan[0].mac.rx nav:vector ETV
attr interpolationmode linear
attr source navChanged
attr title "network allocation vector, vector"
vector 179 ManetNet.nodoFijo1.wlan[0].mac.dcf packetDrop:vector(packetBytes) ETV
attr interpolationmode none
attr source packetDropped
attr title "packet drops, vector(packetBytes)"
vector 180 ManetNet.nodoFijo1.wlan[0].mac.dcf packetDropNotAddressedToUs:vector(packetBytes) ETV
attr interpolationmode none
attr source packetDropReasonIsNotAddressedToUs(packetDropped)
attr title "packet drops: not addressed to us, vector(packetBytes)"
vector 181 ManetNet.nodoFijo1.wlan[0].mac packetDrop:vector(packetBytes) ETV
attr interpolationmode none
attr source packetDropped
attr title "packet drops, vector(packetBytes)"
vector 182 ManetNet.nodoFijo1.wlan[0].mac packetDropNotAddressedToUs:vector(packetBytes) ETV
attr interpolationmode none
attr source packetDropReasonIsNotAddressedToUs(packetDropped)
attr title "packet drops: not addressed to us, vector(packetBytes)"
vector 183 ManetNet.nodoMovil[3].wlan[0].mac.dcf packetSentToPeerUnicast:vector(packetBytes) ETV
attr interpolationmode none
attr source ieee80211Unicast(packetSentToPeer)
attr title "packets sent: unicast, vector(packetBytes)"
vector 184 ManetNet.nodoMovil[5].wlan[0].mac.dcf packetReceivedFromPeerUnicast:vector(packetBytes) ETV
attr interpolationmode none
attr source ieee80211Unicast(packetReceivedFromPeer)
attr title "packets received: unicast, vector(packetBytes)"
vector 185 ManetNet.nodoMovil[5].wlan[0].mac.dcf.channelAccess.inProgressFrames queueingTime:vector ETV
attr interpolationmode none
attr source queueingTime(packetDequeued)
attr title "queueing times, vector"
vector 186 ManetNet.nodoMovil[3].wlan[0].mac.rx nav:vector ETV
attr interpolationmode linear
attr source navChanged
attr title "network allocation vector, vector"
vector 187 ManetNet.nodoMovil[5].udp packetReceived:vector(packetBytes) ETV
attr interpolationmode none
attr source packetReceived
attr title "packets received, vector(packetBytes)"
vector 188 ManetNet.nodoMovil[5].udp droppedPkWrongPort:vector(count) ETV
attr interpolationmode none
attr source packetDropReasonIsNoPortFound(packetDropped)
attr title "packets dropped (wrong port), vector(count)"
vector 189 ManetNet.nodoMovil[0].ipv4.arp arpReplySent:vector(packetBytes) ETV
attr source arpReplySent
attr title "ARP replies sent, vector(packetBytes)"
vector 190 ManetNet.nodoMovil[0].wlan[0].mac packetReceivedFromUpper:vector(packetBytes) ETV
attr interpolationmode none
attr title "packets received from upper layer, vector(packetBytes)"
vector 191 ManetNet.nodoMovil[0].wlan[0].mac.dcf.channelAccess.pendingQueue packetPushed:vector(packetBytes) ETV
attr interpolationmode none
attr title "packet pushed, vector(packetBytes)"
vector 192 ManetNet.nodoMovil[0].wlan[0].mac.dcf.channelAccess.pendingQueue queueLength:vector ETV
attr interpolationmode sample-hold
attr source "count(packetPushed) - count(packetPopped) - count(packetRemoved) - count(packetDropped)"
attr title "queue length, vector"
vector 193 ManetNet.nodoMovil[0].wlan[0].mac.dcf.channelAccess.contention backoffPeriodGenerated:vector ETV
attr interpolationmode none
attr title "backoff periods, vector"
vector 194 ManetNet.nodoMovil[0].wlan[0].mac.dcf.channelAccess.contention backoffActive:vector ETV
attr interpolationmode sample-hold
attr source count(backoffStarted)-count(backoffStopped)
attr title "backoff active, vector"
vector 195 ManetNet.nodoMovil[0].wlan[0].mac.dcf.channelAccess.pendingQueue packetPopped:vector(packetBytes) ETV
attr interpolationmode none
attr title "packet popped, vector(packetBytes)"
vector 196 ManetNet.nodoMovil[0].wlan[0].mac.dcf.channelAccess.pendingQueue queueingTime:vector ETV
attr interpolationmode none
attr source queueingTime(packetPopped)
attr title "queueing times, vector"
attr unit s
vector 197 ManetNet.nodoMovil[0].wlan[0].mac.dcf.channelAccess.inProgressFrames queueLength:vector ETV
attr interpolationmode sample-hold
attr source "count(packetEnqueued) - count(packetDequeued)"
attr title "queue length, vector"
vector 198 ManetNet.nodoMovil[0].wlan[0].mac.dcf datarateSelected:vector ETV
attr interpolationmode none
attr title "datarates selected, vector"
vector 199 ManetNet.nodoMovil[0].wlan[0].mac packetSentToLower:vector(packetBytes) ETV
attr interpolationmode none
attr title "packets sent to lower layer, vector(packetBytes)"
vector 200 ManetNet.nodoMovil[0].wlan[0].mac.dcf frameSequenceActive:vector ETV
attr interpolationmode sample-hold
attr source count(frameSequenceStarted)-count(frameSequenceFinished)
attr title "frame sequence active, vector"
vector 201 ManetNet.nodoMovil[0].wlan[0].radio transmissionState:vector ETV
attr interpolationmode sample-hold
attr source transmissionStateChanged
attr title "Radio transmission state, vector"
vector 202 ManetNet.nodoMovil[0].wlan[0].mac.dcf packetSentToPeer:vector(packetBytes) ETV
attr interpolationmode none
attr title "packets sent, vector(packetBytes)"
vector 203 ManetNet.nodoMovil[0].wlan[0].mac.dcf packetSentToPeerUnicast:vector(packetBytes) ETV
attr interpolationmode none
attr source ieee80211Unicast(packetSentToPeer)
attr title "packets sent: unicast, vector(packetBytes)"
vector 204 ManetNet.nodoMovil[0].wlan[0].mac.dcf packetSentToPeerWithoutRetry:vector(packetBytes) ETV
attr interpolationmode none
attr source ieee80211NotRetry(packetSentToPeer)
attr title "packets sent: without retry, vector(packetBytes)"
vector 205 ManetNet.nodoMovil[5].wlan[0].mac.dcf packetDrop:vector(packetBytes) ETV
attr interpolationmode none
attr source packetDropped
attr title "packet drops, vector(packetBytes)"
vector 206 ManetNet.nodoMovil[5].wlan[0].mac.dcf packetDropNotAddressedToUs:vector(packetBytes) ETV
attr interpolationmode none
attr source packetDropReasonIsNotAddressedToUs(packetDropped)
attr title "packet drops: not addressed to us, vector(packetBytes)"
vector 207 ManetNet.nodoMovil[5].wlan[0].mac packetDrop:vector(packetBytes) ETV
attr interpolationmode none
attr source packetDropped
attr title "packet drops, vector(packetBytes)"
vector 208 ManetNet.nodoMovil[5].wlan[0].mac packetDropNotAddressedToUs:vector(packetBytes) ETV
attr interpolationmode none
attr source packetDropReasonIsNotAddressedToUs(packetDropped)
attr title "packet drops: not addressed to us, vector(packetBytes)"
vector 209 ManetNet.nodoMovil[0].wlan[0].mac.dcf packetReceivedFromPeerUnicast:vector(packetBytes) ETV
attr interpolationmode none
attr source ieee80211Unicast(packetReceivedFromPeer)
attr title "packets received: unicast, vector(packetBytes)"
vector 210 ManetNet.nodoMovil[0].wlan[0].mac.dcf.channelAccess.inProgressFrames queueingTime:vector ETV
attr interpolationmode none
attr source queueingTime(packetDequeued)
attr title "queueing times, vector"
vector 211 ManetNet.nodoMovil[0].udp packetReceived:vector(packetBytes) ETV
attr interpolationmode none
attr source packetReceived
attr title "packets received, vector(packetBytes)"
vector 212 ManetNet.nodoMovil[0].udp droppedPkWrongPort:vector(count) ETV
attr interpolationmode none
attr source packetDropReasonIsNoPortFound(packetDropped)
attr title "packets dropped (wrong port), vector(count)"
vector 213 ManetNet.nodoMovil[2].ipv4.arp arpReplySent:vector(packetBytes) ETV
attr source arpReplySent
attr title "ARP replies sent, vector(packetBytes)"
vector 214 ManetNet.nodoMovil[2].wlan[0].mac packetReceivedFromUpper:vector(packetBytes) ETV
attr interpolationmode none
attr title "packets received from upper layer, vector(packetBytes)"
vector 215 ManetNet.nodoMovil[2].wlan[0].mac.dcf.channelAccess.pendingQueue packetPushed:vector(packetBytes) ETV
attr interpolationmode none
attr title "packet pushed, vector(packetBytes)"
vector 216 ManetNet.nodoMovil[2].wlan[0].mac.dcf.channelAccess.pendingQueue queueLength:vector ETV
attr interpolationmode sample-hold
attr source "count(packetPushed) - count(packetPopped) - count(packetRemoved) - count(packetDropped)"
attr title "queue length, vector"
vector 217 ManetNet.nodoMovil[2].wlan[0].mac.dcf.channelAccess.contention backoffPeriodGenerated:vector ETV
attr interpolationmode none
attr title "backoff periods, vector"
vector 218 ManetNet.nodoMovil[2].wlan[0].mac.dcf.channelAccess.contention backoffActive:vector ETV
attr interpolationmode sample-hold
attr source count(backoffStarted)-count(backoffStopped)
attr title "backoff active, vector"
vector 219 ManetNet.nodoMovil[2].wlan[0].mac.dcf.channelAccess.pendingQueue packetPopped:vector(packetBytes) ETV
attr interpolationmode none
attr title "packet popped, vector(packetBytes)"
vector 220 ManetNet.nodoMovil[2].wlan[0].mac.dcf.channelAccess.pendingQueue queueingTime:vector ETV
attr interpolationmode none
attr source queueingTime(packetPopped)
attr title "queueing times, vector"
attr unit s
vector 221 ManetNet.nodoMovil[2].wlan[0].mac.dcf.channelAccess.inProgressFrames queueLength:vector ETV
attr interpolationmode sample-hold
attr source "count(packetEnqueued) - count(packetDequeued)"
attr title "queue length, vector"
vector 222 ManetNet.nodoMovil[2].wlan[0].mac.dcf datarateSelected:vector ETV
attr interpolationmode none
attr title "datarates selected, vector"
vector 223 ManetNet.nodoMovil[2].wlan[0].mac packetSentToLower:vector(packetBytes) ETV
attr interpolationmode none
attr title "packets sent to lower layer, vector(packetBytes)"
vector 224 ManetNet.nodoMovil[2].wlan[0].mac.dcf frameSequenceActive:vector ETV
attr interpolationmode sample-hold
attr source count(frameSequenceStarted)-count(frameSequenceFinished)
attr title "frame sequence active, vector"
vector 225 ManetNet.nodoMovil[2].wlan[0].radio transmissionState:vector ETV
attr interpolationmode sample-hold
attr source transmissionStateChanged
attr title "Radio transmission state, vector"
vector 226 ManetNet.nodoMovil[2].wlan[0].mac.dcf packetSentToPeer:vector(packetBytes) ETV
attr interpolationmode none
attr title "packets sent, vector(packetBytes)"
vector 227 ManetNet.nodoMovil[2].wlan[0].mac.dcf packetSentToPeerUnicast:vector(packetBytes) ETV
attr interpolationmode none
attr source ieee80211Unicast(packetSentToPeer)
attr title "packets sent: unicast, vector(packetBytes)"
vector 228 ManetNet.nodoMovil[2].wlan[0].mac.dcf packetSentToPeerWithoutRetry:vector(packetBytes) ETV
attr interpolationmode none
attr source ieee80211NotRetry(packetSentToPeer)
attr title "packets sent: without retry, vector(packetBytes)"
vector 229 ManetNet.nodoMovil[2].wlan[0].mac.dcf packetReceivedFromPeerUnicast:vector(packetBytes) ETV
attr interpolationmode none
attr source ieee80211Unicast(packetReceivedFromPeer)
attr title "packets received: unicast, vector(packetBytes)"
vector 230 ManetNet.nodoMovil[2].wlan[0].mac.dcf.channelAccess.inProgressFrames queueingTime:vector ETV
attr interpolationmode none
attr source queueingTime(packetDequeued)
attr title "queueing times, vector"
vector 231 ManetNet.nodoMovil[2].udp packetReceived:vector(packetBytes) ETV
attr interpolationmode none
attr source packetReceived
attr title "packets received, vector(packetBytes)"
vector 232 ManetNet.nodoMovil[2].udp droppedPkWrongPort:vector(count) ETV
attr interpolationmode none
attr source packetDropReasonIsNoPortFound(packetDropped)
attr title "packets dropped (wrong port), vector(count)"
vector 233 ManetNet.nodoMovil[3].lo[0].lo rcvdPkFromHl:vector(packetBytes) ETV
attr interpolationmode none
attr source packetReceivedFromUpper
attr title "packets received from higher layer, vector(packetBytes)"
vector 234 ManetNet.nodoMovil[3].lo[0].lo passedUpPk:vector(packetBytes) ETV
attr interpolationmode none
attr source packetSentToUpper
attr title "packets passed to higher layer, vector(packetBytes)"
vector 235 ManetNet.nodoMovil[3].udp packetReceived:vector(packetBytes) ETV
attr interpolationmode none
attr source packetReceived
attr title "packets received, vector(packetBytes)"
vector 236 ManetNet.nodoMovil[3].udp droppedPkWrongPort:vector(count) ETV
attr interpolationmode none
attr source packetDropReasonIsNoPortFound(packetDropped)
attr title "packets dropped (wrong port), vector(count)"
vector 237 ManetNet.nodoMovil[4].ipv4.arp arpReplySent:vector(packetBytes) ETV
attr source arpReplySent
attr title "ARP replies sent, vector(packetBytes)"
vector 238 ManetNet.nodoMovil[4].wlan[0].mac packetReceivedFromUpper:vector(packetBytes) ETV
attr interpolationmode none
attr title "packets received from upper layer, vector(packetBytes)"
vector 239 ManetNet.nodoMovil[4].wlan[0].mac.dcf.channelAccess.pendingQueue packetPushed:vector(packetBytes) ETV
attr interpolationmode none
attr title "packet pushed, vector(packetBytes)"
vector 240 ManetNet.nodoMovil[4].wlan[0].mac.dcf.channelAccess.pendingQueue queueLength:vector ETV
attr interpolationmode sample-hold
attr source "count(packetPushed) - count(packetPopped) - count(packetRemoved) - count(packetDropped)"
attr title "queue length, vector"
vector 241 ManetNet.nodoMovil[4].wlan[0].mac.dcf.channelAccess.contention backoffPeriodGenerated:vector ETV
attr interpolationmode none
attr title "backoff periods, vector"
vector 242 ManetNet.nodoMovil[4].wlan[0].mac.dcf.channelAccess.contention backoffActive:vector ETV
attr interpolationmode sample-hold
attr source count(backoffStarted)-count(backoffStopped)
attr title "backoff active, vector"
vector 243 ManetNet.nodoMovil[4].wlan[0].mac.dcf.channelAccess.pendingQueue packetPopped:vector(packetBytes) ETV
attr interpolationmode none
attr title "packet popped, vector(packetBytes)"
vector 244 ManetNet.nodoMovil[4].wlan[0].mac.dcf.channelAccess.pendingQueue queueingTime:vector ETV
attr interpolationmode none
attr source queueingTime(packetPopped)
attr title "queueing times, vector"
attr unit s
vector 245 ManetNet.nodoMovil[4].wlan[0].mac.dcf.channelAccess.inProgressFrames queueLength:vector ETV
attr interpolationmode sample-hold
attr source "count(packetEnqueued) - count(packetDequeued)"
attr title "queue length, vector"
vector 246 ManetNet.nodoMovil[4].wlan[0].mac.dcf datarateSelected:vector ETV
attr interpolationmode none
attr title "datarates selected, vector"
vector 247 ManetNet.nodoMovil[4].wlan[0].mac packetSentToLower:vector(packetBytes) ETV
attr interpolationmode none
attr title "packets sent to lower layer, vector(packetBytes)"
vector 248 ManetNet.nodoMovil[4].wlan[0].mac.dcf frameSequenceActive:vector ETV
attr interpolationmode sample-hold
attr source count(frameSequenceStarted)-count(frameSequenceFinished)
attr title "frame sequence active, vector"
vector 249 ManetNet.nodoMovil[4].wlan[0].radio transmissionState:vector ETV
attr interpolationmode sample-hold
attr source transmissionStateChanged
attr title "Radio transmission state, vector"
vector 250 ManetNet.nodoMovil[4].wlan[0].mac.dcf packetSentToPeer:vector(packetBytes) ETV
attr interpolationmode none
attr title "packets sent, vector(packetBytes)"
vector 251 ManetNet.nodoMovil[4].wlan[0].mac.dcf packetSentToPeerUnicast:vector(packetBytes) ETV
attr interpolationmode none
attr source ieee80211Unicast(packetSentToPeer)
attr title "packets sent: unicast, vector(packetBytes)"
vector 252 ManetNet.nodoMovil[4].wlan[0].mac.dcf packetSentToPeerWithoutRetry:vector(packetBytes) ETV
attr interpolationmode none
attr source ieee80211NotRetry(packetSentToPeer)
attr title "packets sent: without retry, vector(packetBytes)"
vector 253 ManetNet.nodoMovil[4].wlan[0].mac.dcf packetReceivedFromPeerUnicast:vector(packetBytes) ETV
attr interpolationmode none
attr source ieee80211Unicast(packetReceivedFromPeer)
attr title "packets received: unicast, vector(packetBytes)"
vector 254 ManetNet.nodoMovil[4].wlan[0].mac.dcf.channelAccess.inProgressFrames queueingTime:vector ETV
attr interpolationmode none
attr source queueingTime(packetDequeued)
attr title "queueing times, vector"
vector 255 ManetNet.nodoMovil[4].udp packetReceived:vector(packetBytes) ETV
attr interpolationmode none
attr source packetReceived
attr title "packets received, vector(packetBytes)"
vector 256 ManetNet.nodoMovil[4].udp droppedPkWrongPort:vector(count) ETV
attr interpolationmode none
attr source packetDropReasonIsNoPortFound(packetDropped)
attr title "packets dropped (wrong port), vector(count)"
vector 257 ManetNet.nodoMovil[1].ipv4.arp arpReplySent:vector(packetBytes) ETV
attr source arpReplySent
attr title "ARP replies sent, vector(packetBytes)"
vector 258 ManetNet.nodoMovil[1].wlan[0].mac packetReceivedFromUpper:vector(packetBytes) ETV
attr interpolationmode none
attr title "packets received from upper layer, vector(packetBytes)"
vector 259 ManetNet.nodoMovil[1].wlan[0].mac.dcf.channelAccess.pendingQueue packetPushed:vector(packetBytes) ETV
attr interpolationmode none
attr title "packet pushed, vector(packetBytes)"
vector 260 ManetNet.nodoMovil[1].wlan[0].mac.dcf.channelAccess.pendingQueue queueLength:vector ETV
attr interpolationmode sample-hold
attr source "count(packetPushed) - count(packetPopped) - count(packetRemoved) - count(packetDropped)"
attr title "queue length, vector"
vector 261 ManetNet.nodoMovil[1].wlan[0].mac.dcf.channelAccess.contention backoffPeriodGenerated:vector ETV
attr interpolationmode none
attr title "backoff periods, vector"
vector 262 ManetNet.nodoMovil[1].wlan[0].mac.dcf.channelAccess.contention backoffActive:vector ETV
attr interpolationmode sample-hold
attr source count(backoffStarted)-count(backoffStopped)
attr title "backoff active, vector"
vector 263 ManetNet.nodoMovil[1].wlan[0].mac.dcf.channelAccess.pendingQueue packetPopped:vector(packetBytes) ETV
attr interpolationmode none
attr title "packet popped, vector(packetBytes)"
vector 264 ManetNet.nodoMovil[1].wlan[0].mac.dcf.channelAccess.pendingQueue queueingTime:vector ETV
attr interpolationmode none
attr source queueingTime(packetPopped)
attr title "queueing times, vector"
attr unit s
vector 265 ManetNet.nodoMovil[1].wlan[0].mac.dcf.channelAccess.inProgressFrames queueLength:vector ETV
attr interpolationmode sample-hold
attr source "count(packetEnqueued) - count(packetDequeued)"
attr title "queue length, vector"
vector 266 ManetNet.nodoMovil[1].wlan[0].mac.dcf datarateSelected:vector ETV
attr interpolationmode none
attr title "datarates selected, vector"
vector 267 ManetNet.nodoMovil[1].wlan[0].mac packetSentToLower:vector(packetBytes) ETV
attr interpolationmode none
attr title "packets sent to lower layer, vector(packetBytes)"
vector 268 ManetNet.nodoMovil[1].wlan[0].mac.dcf frameSequenceActive:vector ETV
attr interpolationmode sample-hold
attr source count(frameSequenceStarted)-count(frameSequenceFinished)
attr title "frame sequence active, vector"
vector 269 ManetNet.nodoMovil[1].wlan[0].radio transmissionState:vector ETV
attr interpolationmode sample-hold
attr source transmissionStateChanged
attr title "Radio transmission state, vector"
vector 270 ManetNet.nodoMovil[1].wlan[0].mac.dcf packetSentToPeer:vector(packetBytes) ETV
attr interpolationmode none
attr title "packets sent, vector(packetBytes)"
vector 271 ManetNet.nodoMovil[1].wlan[0].mac.dcf packetSentToPeerUnicast:vector(packetBytes) ETV
attr interpolationmode none
attr source ieee80211Unicast(packetSentToPeer)
attr title "packets sent: unicast, vector(packetBytes)"
vector 272 ManetNet.nodoMovil[1].wlan[0].mac.dcf packetSentToPeerWithoutRetry:vector(packetBytes) ETV
attr interpolationmode none
attr source ieee80211NotRetry(packetSentToPeer)
attr title "packets sent: without retry, vector(packetBytes)"
vector 273 ManetNet.nodoMovil[1].wlan[0].mac.dcf packetReceivedFromPeerUnicast:vector(packetBytes) ETV
attr interpolationmode none
attr source ieee80211Unicast(packetReceivedFromPeer)
attr title "packets received: unicast, vector(packetBytes)"
vector 274 ManetNet.nodoMovil[1].wlan[0].mac.dcf.channelAccess.inProgressFrames queueingTime:vector ETV
attr interpolationmode none
attr source queueingTime(packetDequeued)
attr title "queueing times, vector"
vector 275 ManetNet.nodoMovil[1].udp packetReceived:vector(packetBytes) ETV
attr interpolationmode none
attr source packetReceived
attr title "packets received, vector(packetBytes)"
vector 276 ManetNet.nodoMovil[1].udp droppedPkWrongPort:vector(count) ETV
attr interpolationmode none
attr source packetDropReasonIsNoPortFound(packetDropped)
attr title "packets dropped (wrong port), vector(count)"
vector 277 ManetNet.nodoMovil[5].app[0] packetSent:vector(packetBytes) ETV
attr interpolationmode none
attr source packetSent
attr title "packets sent, vector(packetBytes)"
vector 278 ManetNet.nodoMovil[5].udp packetSent:vector(packetBytes) ETV
attr interpolationmode none
attr source packetSent
attr title "packets sent, vector(packetBytes)"
vector 279 ManetNet.nodoMovil[5].lo[0].lo rcvdPkFromHl:vector(packetBytes) ETV
attr interpolationmode none
attr source packetReceivedFromUpper
attr title "packets received from higher layer, vector(packetBytes)"
vector 280 ManetNet.nodoMovil[5].lo[0].lo passedUpPk:vector(packetBytes) ETV
attr interpolationmode none
attr source packetSentToUpper
attr title "packets passed to higher layer, vector(packetBytes)"
vector 281 ManetNet.nodoMovil[5].ipv4.arp arpRequestSent:vector(packetBytes) ETV
attr source arpRequestSent
attr title "ARP request sent, vector(packetBytes)"
vector 282 ManetNet.nodoMovil[5].wlan[0].mac.dcf packetSentToPeerMulticast:vector(packetBytes) ETV
attr interpolationmode none
attr source ieee80211Multicast(packetSentToPeer)
attr title "packets sent: multicast, vector(packetBytes)"
vector 283 ManetNet.nodoMovil[5].wlan[0].mac.dcf packetSentToPeerBroadcast:vector(packetBytes) ETV
attr interpolationmode none
attr source ieee80211Broadcast(packetSentToPeer)
attr title "packets sent: broadcast , vector(packetBytes)"
vector 284 ManetNet.nodoMovil[3].wlan[0].mac.dcf packetDrop:vector(packetBytes) ETV
attr interpolationmode none
attr source packetDropped
attr title "packet drops, vector(packetBytes)"
vector 285 ManetNet.nodoMovil[3].wlan[0].mac.dcf packetDropNotAddressedToUs:vector(packetBytes) ETV
attr interpolationmode none
attr source packetDropReasonIsNotAddressedToUs(packetDropped)
attr title "packet drops: not addressed to us, vector(packetBytes)"
vector 286 ManetNet.nodoMovil[3].wlan[0].mac packetDrop:vector(packetBytes) ETV
attr interpolationmode none
attr source packetDropped
attr title "packet drops, vector(packetBytes)"
vector 287 ManetNet.nodoMovil[3].wlan[0].mac packetDropNotAddressedToUs:vector(packetBytes) ETV
attr interpolationmode none
attr source packetDropReasonIsNotAddressedToUs(packetDropped)
attr title "packet drops: not addressed to us, vector(packetBytes)"
vector 288 ManetNet.nodoMovil[6].app[0] packetSent:vector(packetBytes) ETV
attr interpolationmode none
attr source packetSent
attr title "packets sent, vector(packetBytes)"
vector 289 ManetNet.nodoMovil[6].udp packetSent:vector(packetBytes) ETV
attr interpolationmode none
attr source packetSent
attr title "packets sent, vector(packetBytes)"
vector 290 ManetNet.nodoMovil[6].ipv4.arp arpRequestSent:vector(packetBytes) ETV
attr source arpRequestSent
attr title "ARP request sent, vector(packetBytes)"
vector 291 ManetNet.nodoMovil[6].wlan[0].mac packetReceivedFromUpper:vector(packetBytes) ETV
attr interpolationmode none
attr title "packets received from upper layer, vector(packetBytes)"
vector 292 ManetNet.nodoMovil[6].wlan[0].mac.dcf.channelAccess.pendingQueue packetPushed:vector(packetBytes) ETV
attr interpolationmode none
attr title "packet pushed, vector(packetBytes)"
vector 293 ManetNet.nodoMovil[6].wlan[0].mac.dcf.channelAccess.pendingQueue queueLength:vector ETV
attr interpolationmode sample-hold
attr source "count(packetPushed) - count(packetPopped) - count(packetRemoved) - count(packetDropped)"
attr title "queue length, vector"
vector 294 ManetNet.nodoMovil[6].wlan[0].mac.dcf.channelAccess.contention backoffPeriodGenerated:vector ETV
attr interpolationmode none
attr title "backoff periods, vector"
vector 295 ManetNet.nodoMovil[6].wlan[0].mac.dcf.channelAccess.contention backoffActive:vector ETV
attr interpolationmode sample-hold
attr source count(backoffStarted)-count(backoffStopped)
attr title "backoff active, vector"
vector 296 ManetNet.nodoMovil[6].wlan[0].mac.dcf.channelAccess.pendingQueue packetPopped:vector(packetBytes) ETV
attr interpolationmode none
attr title "packet popped, vector(packetBytes)"
vector 297 ManetNet.nodoMovil[6].wlan[0].mac.dcf.channelAccess.pendingQueue queueingTime:vector ETV
attr interpolationmode none
attr source queueingTime(packetPopped)
attr title "queueing times, vector"
attr unit s
vector 298 ManetNet.nodoMovil[6].wlan[0].mac.dcf.channelAccess.inProgressFrames queueLength:vector ETV
attr interpolationmode sample-hold
attr source "count(packetEnqueued) - count(packetDequeued)"
attr title "queue length, vector"
vector 299 ManetNet.nodoMovil[6].wlan[0].mac.dcf datarateSelected:vector ETV
attr interpolationmode none
attr title "datarates selected, vector"
vector 300 ManetNet.nodoMovil[6].wlan[0].mac packetSentToLower:vector(packetBytes) ETV
attr interpolationmode none
attr title "packets sent to lower layer, vector(packetBytes)"
vector 301 ManetNet.nodoMovil[6].wlan[0].mac.dcf frameSequenceActive:vector ETV
attr interpolationmode sample-hold
attr source count(frameSequenceStarted)-count(frameSequenceFinished)
attr title "frame sequence active, vector"
vector 302 ManetNet.nodoMovil[6].wlan[0].radio transmissionState:vector ETV
attr interpolationmode sample-hold
attr source transmissionStateChanged
attr title "Radio transmission state, vector"
vector 303 ManetNet.nodoMovil[6].wlan[0].mac.dcf packetSentToPeer:vector(packetBytes) ETV
attr interpolationmode none
attr title "packets sent, vector(packetBytes)"
vector 304 ManetNet.nodoMovil[6].wlan[0].mac.dcf packetSentToPeerMulticast:vector(packetBytes) ETV
attr interpolationmode none
attr source ieee80211Multicast(packetSentToPeer)
attr title "packets sent: multicast, vector(packetBytes)"
vector 305 ManetNet.nodoMovil[6].wlan[0].mac.dcf packetSentToPeerBroadcast:vector(packetBytes) ETV
attr interpolationmode none
attr source ieee80211Broadcast(packetSentToPeer)
attr title "packets sent: broadcast , vector(packetBytes)"
vector 306 ManetNet.nodoMovil[6].wlan[0].mac.dcf packetSentToPeerWithoutRetry:vector(packetBytes) ETV
attr interpolationmode none
attr source ieee80211NotRetry(packetSentToPeer)
attr title "packets sent: without retry, vector(packetBytes)"
vector 307 ManetNet.nodoMovil[6].wlan[0].mac.dcf.channelAccess.inProgressFrames queueingTime:vector ETV
attr interpolationmode none
attr source queueingTime(packetDequeued)
attr title "queueing times, vector"
vector 308 ManetNet.nodoMovil[3].ipv4.arp arpReplySent:vector(packetBytes) ETV
attr source arpReplySent
attr title "ARP replies sent, vector(packetBytes)"
vector 309 ManetNet.nodoMovil[6].wlan[0].mac.dcf packetReceivedFromPeerUnicast:vector(packetBytes) ETV
attr interpolationmode none
attr source ieee80211Unicast(packetReceivedFromPeer)
attr title "packets received: unicast, vector(packetBytes)"
vector 310 ManetNet.nodoMovil[6].wlan[0].mac.dcf packetSentToPeerUnicast:vector(packetBytes) ETV
attr interpolationmode none
attr source ieee80211Unicast(packetSentToPeer)
attr title "packets sent: unicast, vector(packetBytes)"
vector 311 ManetNet.nodoFijo1.ipv4.ip packetDropAddressResolutionFailed:vector(packetBytes) ETV
attr interpolationmode none
attr source packetDropReasonIsAddressResolutionFailed(packetDropped)
attr title "packet drop: address resolution failed, vector(packetBytes)"
vector 312 ManetNet.nodoMovil[0].app[0] packetSent:vector(packetBytes) ETV
attr interpolationmode none
attr source packetSent
attr title "packets sent, vector(packetBytes)"
vector 313 ManetNet.nodoMovil[0].udp packetSent:vector(packetBytes) ETV
attr interpolationmode none
attr source packetSent
attr title "packets sent, vector(packetBytes)"
vector 314 ManetNet.nodoMovil[0].lo[0].lo rcvdPkFromHl:vector(packetBytes) ETV
attr interpolationmode none
attr source packetReceivedFromUpper
attr title "packets received from higher layer, vector(packetBytes)"
vector 315 ManetNet.nodoMovil[0].lo[0].lo passedUpPk:vector(packetBytes) ETV
attr interpolationmode none
attr source packetSentToUpper
attr title "packets passed to higher layer, vector(packetBytes)"
vector 316 ManetNet.nodoMovil[0].ipv4.arp arpRequestSent:vector(packetBytes) ETV
attr source arpRequestSent
attr title "ARP request sent, vector(packetBytes)"
vector 317 ManetNet.nodoMovil[0].wlan[0].mac.dcf packetSentToPeerMulticast:vector(packetBytes) ETV
attr interpolationmode none
attr source ieee80211Multicast(packetSentToPeer)
attr title "packets sent: multicast, vector(packetBytes)"
vector 318 ManetNet.nodoMovil[0].wlan[0].mac.dcf packetSentToPeerBroadcast:vector(packetBytes) ETV
attr interpolationmode none
attr source ieee80211Broadcast(packetSentToPeer)
attr title "packets sent: broadcast , vector(packetBytes)"
vector 319 ManetNet.nodoMovil[2].app[0] packetSent:vector(packetBytes) ETV
attr interpolationmode none
attr source packetSent
attr title "packets sent, vector(packetBytes)"
vector 320 ManetNet.nodoMovil[2].udp packetSent:vector(packetBytes) ETV
attr interpolationmode none
attr source packetSent
attr title "packets sent, vector(packetBytes)"
vector 321 ManetNet.nodoMovil[2].ipv4.arp arpRequestSent:vector(packetBytes) ETV
attr source arpRequestSent
attr title "ARP request sent, vector(packetBytes)"
vector 322 ManetNet.nodoMovil[2].wlan[0].mac.dcf packetSentToPeerMulticast:vector(packetBytes) ETV
attr interpolationmode none
attr source ieee80211Multicast(packetSentToPeer)
attr title "packets sent: multicast, vector(packetBytes)"
vector 323 ManetNet.nodoMovil[2].wlan[0].mac.dcf packetSentToPeerBroadcast:vector(packetBytes) ETV
attr interpolationmode none
attr source ieee80211Broadcast(packetSentToPeer)
attr title "packets sent: broadcast , vector(packetBytes)"
vector 324 ManetNet.nodoMovil[2].lo[0].lo rcvdPkFromHl:vector(packetBytes) ETV
attr interpolationmode none
attr source packetReceivedFromUpper
attr title "packets received from higher layer, vector(packetBytes)"
vector 325 ManetNet.nodoMovil[2].lo[0].lo passedUpPk:vector(packetBytes) ETV
attr interpolationmode none
attr source packetSentToUpper
attr title "packets passed to higher layer, vector(packetBytes)"
vector 326 ManetNet.nodoMovil[1].app[0] packetSent:vector(packetBytes) ETV
attr interpolationmode none
attr source packetSent
attr title "packets sent, vector(packetBytes)"
vector 327 ManetNet.nodoMovil[1].udp packetSent:vector(packetBytes) ETV
attr interpolationmode none
attr source packetSent
attr title "packets sent, vector(packetBytes)"
vector 328 ManetNet.nodoMovil[1].ipv4.arp arpRequestSent:vector(packetBytes) ETV
attr source arpRequestSent
attr title "ARP request sent, vector(packetBytes)"
vector 329 ManetNet.nodoMovil[1].wlan[0].mac.dcf packetSentToPeerMulticast:vector(packetBytes) ETV
attr interpolationmode none
attr source ieee80211Multicast(packetSentToPeer)
attr title "packets sent: multicast, vector(packetBytes)"
vector 330 ManetNet.nodoMovil[1].wlan[0].mac.dcf packetSentToPeerBroadcast:vector(packetBytes) ETV
attr interpolationmode none
attr source ieee80211Broadcast(packetSentToPeer)
attr title "packets sent: broadcast , vector(packetBytes)"
0	0	0	0
0	0	0	0
0	0	0	2
0	362	5	3
0	373	5.00005	2
0	629	6	3
0	640	6.00005	2
0	2917	7	3
0	2928	7.00005	2
0	9861	8	3
0	9872	8.00005	2
0	23397	9	3
0	23408	9.00005	2
1	0	0	0
2	0	0	0
2	0	0	0
2	0	0	2
3	0	0	0
4	0	0	0
4	0	0	0
4	0	0	2
4	1116	6.537833291817	3
4	1127	6.537883291817	2
4	1222	6.538161822907	3
4	1239	6.538195822907	2
4	1260	6.538445822907	3
4	1271	6.538503822907	2
4	2627	6.937817299754	3
4	2644	6.937851299754	2
4	2665	6.938281299754	3
4	2676	6.938339299754	2
4	2791	6.987817300783	3
4	2808	6.987851300783	2
4	2829	6.988061300783	3
4	2840	6.988119300783	2
4	3334	7.137817303917	3
4	3351	7.137851303917	2
4	3372	7.137941303917	3
4	3383	7.137999303917	2
4	3852	7.337817308203	3
4	3869	7.337851308203	2
4	3890	7.338481308203	3
4	3901	7.338539308203	2
4	4016	7.387817309293	3
4	4033	7.387851309293	2
4	4067	7.388401309293	3
4	4078	7.388459309293	2
4	4635	7.487817311494	3
4	4652	7.487851311494	2
4	4673	7.488201311494	3
4	4684	7.488259311494	2
4	5858	7.63875355974	3
4	5869	7.63880355974	2
4	5964	7.639442150691	3
4	5981	7.639476150691	2
4	6002	7.639726150691	3
4	6013	7.639784150691	2
4	7844	7.844654898019	3
4	7855	7.844704898019	2
4	7950	7.84494347874	3
4	7967	7.84497747874	2
4	7988	7.84524747874	3
4	7999	7.84530547874	2
4	8272	7.889097571722	3
4	8289	7.889131571722	2
4	8310	7.889201571722	3
4	8321	7.889259571722	2
4	9918	8.01381685189	3
4	9929	8.01395085189	2
4	10025	8.01425345547	3
4	10042	8.01428745547	2
4	10543	8.06381685189	3
4	10554	8.06395085189	2
4	10650	8.064613457196	3
4	10667	8.064647457196	2
4	10736	8.087817325272	3
4	10753	8.087851325272	2
4	10774	8.088081325272	3
4	10785	8.088139325272	2
4	11525	8.144618900292	3
4	11542	8.144652900292	2
4	11563	8.145242900292	3
4	11574	8.145300900292	2
4	11655	8.16381685189	3
4	11666	8.16395085189	2
4	11762	8.164573453526	3
4	11779	8.164607453526	2
4	11860	8.188469863083	3
4	11877	8.188503863083	2
4	11898	8.189013863083	3
4	11909	8.189071863083	2
4	12142	8.21381685189	3
4	12153	8.21386685189	2
4	12223	8.213977375631	3
4	12238	8.214011375631	2
4	12261	8.214281375631	3
4	12272	8.214415375631	2
4	12368	8.215137899411	3
4	12383	8.215171899411	2
4	13166	8.26381685189	3
4	13177	8.26395085189	2
4	13273	8.26411346415	3
4	13290	8.26414746415	2
4	13369	8.279870916121	3
4	13380	8.279920916121	2
4	13478	8.280579597456	3
4	13495	8.280613597456	2
4	13516	8.280743597456	3
4	13527	8.280801597456	2
4	14071	8.31381685189	3
4	14082	8.31386685189	2
4	14152	8.314397161141	3
4	14165	8.314431161141	2
4	14190	8.314521161141	3
4	14201	8.314655161141	2
4	14297	8.31519747038	3
4	14310	8.31523147038	2
4	15379	8.429614917967	3
4	15396	8.429648917967	2
4	15417	8.430018917967	3
4	15428	8.430076917967	2
4	15529	8.437817333725	3
4	15546	8.437851333725	2
4	15717	8.438786234533	3
4	15728	8.438844234533	2
4	15966	8.46381685189	3
4	15977	8.46395085189	2
4	16073	8.464433537754	3
4	16090	8.464467537754	2
4	16156	8.479614918582	3
4	16173	8.479648918582	2
4	16194	8.479958918582	3
4	16208	8.480016918582	2
4	16309	8.487817334956	3
4	16326	8.487851334956	2
4	16347	8.487981334956	3
4	16358	8.488039334956	2
4	16749	8.51381685189	3
4	16760	8.51395085189	2
4	16856	8.514653157828	3
4	16869	8.514687157828	2
4	17260	8.544618903368	3
4	17277	8.544652903368	2
4	17298	8.545182903368	3
4	17309	8.545240903368	2
4	17386	8.56381685189	3
4	17397	8.56395085189	2
4	17493	8.564533157012	3
4	17506	8.564567157012	2
4	17576	8.579614919815	3
4	17593	8.579648919815	2
4	17617	8.580298919815	3
4	17628	8.580356919815	2
4	18169	8.61381685189	3
4	18180	8.61395085189	2
4	18276	8.614733475527	3
4	18293	8.614767475527	2
4	18928	8.66381685189	3
4	18939	8.66395085189	2
4	19035	8.664193478014	3
4	19052	8.664227478014	2
4	19283	8.688857881725	3
4	19300	8.688891881725	2
4	19321	8.689021881725	3
4	19332	8.689079881725	2
4	19569	8.71381685189	3
4	19580	8.71395085189	2
4	19676	8.714273543917	3
4	19692	8.714307543917	2
4	20206	8.76381685189	3
4	20217	8.76395085189	2
4	20313	8.764273482111	3
4	20330	8.764307482111	2
4	21390	8.879614923518	3
4	21406	8.879648923518	2
4	21428	8.879818923518	3
4	21439	8.879876923518	2
4	21983	8.91381685189	3
4	21994	8.91395085189	2
4	22090	8.91413349067	3
4	22107	8.91416749067	2
4	22762	8.96381685189	3
4	22773	8.96395085189	2
4	22869	8.964573150639	3
4	22881	8.964607150639	2
4	23450	9.01381685189	3
4	23461	9.01395085189	2
4	23557	9.014553551334	3
4	23573	9.014587551334	2
4	23804	9.038898077999	3
4	23821	9.038932077999	2
4	23842	9.039542077999	3
4	23853	9.039600077999	2
4	24087	9.06381685189	3
4	24098	9.06395085189	2
4	24194	9.064253498388	3
4	24211	9.064287498388	2
4	24870	9.11381685189	3
4	24881	9.11395085189	2
4	24977	9.114393553806	3
4	24993	9.114427553806	2
4	25923	9.23640283358	3
4	25935	9.23643683358	2
4	25961	9.23678683358	3
4	25972	9.23684483358	2
4	26372	9.26381685189	3
4	26383	9.26395085189	2
4	26479	9.26423343019	3
4	26494	9.26426743019	2
4	27147	9.31381685189	3
4	27158	9.31395085189	2
4	27254	9.314493511446	3
4	27271	9.314527511446	2
4	27339	9.329614929088	3
4	27355	9.329648929088	2
4	27377	9.330198929088	3
4	27388	9.330256929088	2
4	27639	9.337817356676	3
4	27656	9.337851356676	2
4	27677	9.338181356676	3
4	27688	9.338239356676	2
4	27938	9.36381685189	3
4	27949	9.36395085189	2
4	28045	9.364653560004	3
5	0	0	0
6	0	0	0
6	0	0	0
6	0	0	2
6	2330	6.837973203941	3
6	2341	6.838023203941	2
6	2436	6.8387015593	3
6	2450	6.8387355593	2
6	2474	6.8390055593	3
6	2485	6.8390635593	2
6	4195	7.437817219531	3
6	4209	7.437851219531	2
6	4233	7.437901219531	3
6	4244	7.437959219531	2
6	4798	7.488973837361	3
6	4809	7.489023837361	2
6	4904	7.489702163107	3
6	4919	7.489736163107	2
6	4942	7.490086163107	3
6	4953	7.490144163107	2
6	6878	7.738469726567	3
6	6893	7.738503726567	2
6	6916	7.738733726567	3
6	6927	7.738791726567	2
6	7208	7.788469727654	3
6	7223	7.788503727654	2
6	7246	7.789093727654	3
6	7257	7.789151727654	2
6	7528	7.837817229924	3
6	7542	7.837851229924	2
6	7566	7.837941229924	3
6	7577	7.837999229924	2
6	8435	7.894634740637	3
6	8446	7.894684740637	2
6	8541	7.895403006606	3
6	8554	7.895437006606	2
6	8579	7.896027006606	3
6	8590	7.896085006606	2
6	10110	8.037817235121	3
6	10124	8.037851235121	2
6	10148	8.038041235121	3
6	10159	8.038099235121	2
6	10413	8.044618743163	3
6	10426	8.044652743163	2
6	10451	8.045282743163	3
6	10462	8.045340743163	2
6	11036	8.094618744005	3
6	11049	8.094652744005	2
6	11074	8.094702744005	3
6	11085	8.094760744005	2
6	12470	8.229770765696	3
6	12481	8.229820765696	2
6	12576	8.23033914619	3
6	12589	8.23037314619	2
6	12614	8.23086314619	3
6	12625	8.23092114619	2
6	13935	8.294618747374	3
6	13948	8.294652747374	2
6	13973	8.295082747374	3
6	13984	8.295140747374	2
6	14119	8.314337006518	3
6	14130	8.314387006518	2
6	14225	8.314665315763	3
6	14237	8.314699315763	2
6	14263	8.315129315763	3
6	14274	8.315187315763	2
6	14704	8.344618748217	3
6	14717	8.344652748217	2
6	14742	8.344902748217	3
6	14753	8.344960748217	2
6	15197	8.394618749059	3
6	15210	8.394652749059	2
6	15235	8.394962749059	3
6	15246	8.395020749059	2
6	15607	8.43846974179	3
6	15622	8.43850374179	2
6	15645	8.43861374179	3
6	15656	8.43867174179	2
6	15836	8.444618749901	3
6	15849	8.444652749901	2
6	15874	8.445102749901	3
6	15885	8.445160749901	2
6	16613	8.494618750743	3
6	16626	8.494652750743	2
6	16651	8.494722750743	3
6	16662	8.494780750743	2
6	16784	8.513961004862	3
6	16796	8.513995004862	2
6	16822	8.514585004862	3
6	16833	8.514643004862	2
6	16941	8.529614772631	3
6	16954	8.529648772631	2
6	16979	8.530118772631	3
6	16990	8.530176772631	2
6	17103	8.538469743965	3
6	17118	8.538503743965	2
6	17141	8.538733743965	3
6	17152	8.538791743965	2
6	17421	8.563961004454	3
6	17433	8.563995004454	2
6	17459	8.564465004454	3
6	17470	8.564523004454	2
6	17729	8.587817249411	3
6	17743	8.587851249411	2
6	17767	8.587981249411	3
6	17778	8.588039249411	2
6	19133	8.68781725201	3
6	19147	8.68785125201	2
6	19171	8.68804125201	3
6	19182	8.68809925201	2
6	19761	8.729614777255	3
6	19774	8.729648777255	2
6	19799	8.729778777255	3
6	19810	8.729836777255	2
6	20080	8.744618754954	3
6	20093	8.744652754954	2
6	20118	8.744802754954	3
6	20129	8.744860754954	2
6	21047	8.837817255907	3
6	21061	8.837851255907	2
6	21085	8.838041255907	3
6	21096	8.838099255907	2
6	22475	8.938857499173	3
6	22490	8.938891499173	2
6	22513	8.939481499173	3
6	22524	8.939539499173	2
6	22797	8.963961001267	3
6	22809	8.963995001267	2
6	22835	8.964505001267	3
6	22846	8.964563001267	2
6	23105	8.987817259805	3
6	23119	8.987851259805	2
6	23143	8.988161259805	3
6	23154	8.988219259805	2
6	24430	9.087817262403	3
6	24444	9.087851262403	2
6	24468	9.088321262403	3
6	24484	9.088379262403	2
6	25381	9.144618761692	3
6	25394	9.144652761692	2
6	25419	9.144702761692	3
6	25430	9.144760761692	2
6	25772	9.229614788813	3
6	25785	9.229648788813	2
6	25810	9.229798788813	3
6	25821	9.229856788813	2
6	25888	9.236258686287	3
6	25899	9.236392686287	2
6	25995	9.236854980869	3
6	26007	9.236888980869	2
6	26542	9.286258686287	3
6	26553	9.286308686287	2
6	26623	9.28651915869	3
6	26637	9.28655315869	2
6	26661	9.28714315869	3
6	26672	9.28727715869	2
6	26768	9.287539631141	3
6	26782	9.287573631141	2
6	27454	9.336258686287	3
6	27465	9.336392686287	2
6	27561	9.336655092376	3
6	27576	9.336689092376	2
6	27808	9.344618765061	3
6	27821	9.344652765061	2
6	27846	9.344822765061	3
6	27857	9.344880765061	2
7	0	0	0
8	0	0	0
8	0	0	0
8	0	0	2
8	1568	6.63829326043	3
8	1579	6.63834326043	2
8	1674	6.639201728807	3
8	1690	6.639235728807	2
8	1712	6.639745728807	3
8	1723	6.639803728807	2
8	1841	6.687817262194	3
8	1857	6.687851262194	2
8	1879	6.687961262194	3
8	1890	6.688019262194	2
8	5420	7.588545750448	3
8	5431	7.588595750448	2
8	5526	7.588894134807	3
8	5542	7.588928134807	2
8	5564	7.589418134807	3
8	5575	7.589476134807	2
8	7678	7.838717713497	3
8	7694	7.838751713497	2
8	7716	7.838821713497	3
8	7727	7.838879713497	2
8	9034	7.945154668607	3
8	9045	7.945204668607	2
8	9140	7.945782790515	3
8	9152	7.945816790515	2
8	9178	7.945886790515	3
8	9189	7.945944790515	2
8	9462	7.988877477498	3
8	9478	7.988911477498	2
8	9500	7.989061477498	3
8	9511	7.989119477498	2
8	10260	8.03889773104	3
8	10276	8.03893173104	2
8	10298	8.03920173104	3
8	10309	8.03925973104	2
8	12422	8.229470575461	3
8	12433	8.229520575461	2
8	12503	8.229830955938	3
8	12518	8.229864955938	2
8	12541	8.230194955938	3
8	12552	8.230328955938	2
8	12648	8.230931336458	3
8	12663	8.230965336458	2
8	13321	8.279470575461	3
8	13332	8.279520575461	2
8	13402	8.279931256785	3
8	13419	8.279965256785	2
8	13443	8.280435256785	3
8	13454	8.280569256785	2
8	13550	8.280811938131	3
8	13567	8.280845938131	2
8	13706	8.288469768175	3
8	13722	8.288503768175	2
8	13816	8.288986457843	3
8	13827	8.289044457843	2
8	14350	8.329470575461	3
8	14361	8.329604575461	2
8	14457	8.329986997353	3
8	14473	8.330020997353	2
8	14843	8.379470575461	3
8	14854	8.379604575461	2
8	14953	8.380287166683	3
8	14969	8.380321166683	2
[...]
311	9847	8	540
311	9847	8	540
311	9847	8	540
311	9847	8	540
311	9847	8	540
311	9847	8	540
311	9847	8	540
311	9847	8	540
311	9847	8	540
311	9847	8	540
311	9847	8	540
311	9847	8	540
311	9847	8	540
311	9847	8	540
311	9847	8	540
311	9847	8	540
311	9847	8	540
311	9847	8	540
311	9847	8	540
311	9847	8	540
311	9847	8	540
311	9847	8	540
311	9847	8	540
311	9847	8	540
311	9847	8	540
311	9847	8	540
311	9847	8	540
312	9910	8.01381685189	256
312	10536	8.06381685189	256
312	11165	8.11381685189	256
312	11648	8.16381685189	256
312	12135	8.21381685189	256
312	13159	8.26381685189	256
312	14064	8.31381685189	256
312	14823	8.36381685189	256
312	15322	8.41381685189	256
312	15959	8.46381685189	256
312	16742	8.51381685189	256
312	17379	8.56381685189	256
312	18162	8.61381685189	256
312	18921	8.66381685189	256
312	19562	8.71381685189	256
312	20199	8.76381685189	256
312	20840	8.81381685189	256
312	21335	8.86381685189	256
312	21976	8.91381685189	256
312	22755	8.96381685189	256
312	23443	9.01381685189	256
312	24080	9.06381685189	256
312	24863	9.11381685189	256
312	25500	9.16381685189	256
312	25715	9.21381685189	256
312	26365	9.26381685189	256
312	27140	9.31381685189	256
312	27931	9.36381685189	256
313	9912	8.01381685189	264
313	10537	8.06381685189	264
313	11166	8.11381685189	264
313	11649	8.16381685189	264
313	12136	8.21381685189	264
313	13160	8.26381685189	264
313	14065	8.31381685189	264
313	14824	8.36381685189	264
313	15323	8.41381685189	264
313	15960	8.46381685189	264
313	16743	8.51381685189	264
313	17380	8.56381685189	264
313	18163	8.61381685189	264
313	18922	8.66381685189	264
313	19563	8.71381685189	264
313	20200	8.76381685189	264
313	20841	8.81381685189	264
313	21336	8.86381685189	264
313	21977	8.91381685189	264
313	22756	8.96381685189	264
313	23444	9.01381685189	264
313	24081	9.06381685189	264
313	24864	9.11381685189	264
313	25501	9.16381685189	264
313	25716	9.21381685189	264
313	26366	9.26381685189	264
313	27141	9.31381685189	264
313	27932	9.36381685189	264
314	11168	8.11381685189	284
314	11172	8.11381685189	56
314	14826	8.36381685189	284
314	14830	8.36381685189	56
314	15325	8.41381685189	284
314	15329	8.41381685189	56
314	20843	8.81381685189	284
314	20847	8.81381685189	56
314	21338	8.86381685189	284
314	21342	8.86381685189	56
314	25503	9.16381685189	284
314	25507	9.16381685189	56
314	25718	9.21381685189	284
314	25722	9.21381685189	56
315	11168	8.11381685189	284
315	11172	8.11381685189	56
315	14826	8.36381685189	284
315	14830	8.36381685189	56
315	15325	8.41381685189	284
315	15329	8.41381685189	56
315	20843	8.81381685189	284
315	20847	8.81381685189	56
315	21338	8.86381685189	284
315	21342	8.86381685189	56
315	25503	9.16381685189	284
315	25507	9.16381685189	56
315	25718	9.21381685189	284
315	25722	9.21381685189	56
316	12137	8.21381685189	28
316	14066	8.31381685189	28
317	12152	8.21386685189	64
317	14081	8.31386685189	64
318	12152	8.21386685189	64
318	14081	8.31386685189	64
319	12414	8.229470575461	256
319	13314	8.279470575461	256
319	14343	8.329470575461	256
319	14836	8.379470575461	256
319	15337	8.429470575461	256
319	16114	8.479470575461	256
319	16899	8.529470575461	256
319	17534	8.579470575461	256
319	18319	8.629470575461	256
319	19076	8.679470575461	256
319	19719	8.729470575461	256
319	20354	8.779470575461	256
319	20855	8.829470575461	256
319	21348	8.879470575461	256
319	22133	8.929470575461	256
319	22910	8.979470575461	256
319	23600	9.029470575461	256
319	24235	9.079470575461	256
319	25020	9.129470575461	256
319	25513	9.179470575461	256
319	25730	9.229470575461	256
319	26520	9.279470575461	256
319	27297	9.329470575461	256
320	12416	8.229470575461	264
320	13315	8.279470575461	264
320	14344	8.329470575461	264
320	14837	8.379470575461	264
320	15338	8.429470575461	264
320	16115	8.479470575461	264
320	16900	8.529470575461	264
320	17535	8.579470575461	264
320	18320	8.629470575461	264
320	19077	8.679470575461	264
320	19720	8.729470575461	264
320	20355	8.779470575461	264
320	20856	8.829470575461	264
320	21349	8.879470575461	264
320	22134	8.929470575461	264
320	22911	8.979470575461	264
320	23601	9.029470575461	264
320	24236	9.079470575461	264
320	25021	9.129470575461	264
320	25514	9.179470575461	264
320	25731	9.229470575461	264
320	26521	9.279470575461	264
320	27298	9.329470575461	264
321	12417	8.229470575461	28
321	13316	8.279470575461	28
321	18321	8.629470575461	28
322	12432	8.229520575461	64
322	13331	8.279520575461	64
322	18336	8.629520575461	64
323	12432	8.229520575461	64
323	13331	8.279520575461	64
323	18336	8.629520575461	64
324	19079	8.679470575461	284
324	19083	8.679470575461	56
324	23603	9.029470575461	284
324	23607	9.029470575461	56
324	25516	9.179470575461	284
324	25520	9.179470575461	56
324	26523	9.279470575461	284
324	26527	9.279470575461	56
325	19079	8.679470575461	284
325	19083	8.679470575461	56
325	23603	9.029470575461	284
325	23607	9.029470575461	56
325	25516	9.179470575461	284
325	25520	9.179470575461	56
325	26523	9.279470575461	284
325	26527	9.279470575461	56
326	25880	9.236258686287	256
326	26535	9.286258686287	256
326	27447	9.336258686287	256
327	25882	9.236258686287	264
327	26536	9.286258686287	264
327	27448	9.336258686287	264
328	26537	9.286258686287	28
329	26552	9.286308686287	64
330	26552	9.286308686287	64
vector 331 ManetNet.nodoFijo1.app[0] throughput:vector ETV
attr source throughput(packetReceived)
attr title "throughput, vector"
attr unit bps
vector 332 ManetNet.nodoFijo2.app[0] throughput:vector ETV
attr source throughput(packetReceived)
attr title "throughput, vector"
attr unit bps
vector 333 ManetNet.nodoMovil[0].app[0] throughput:vector ETV
attr source throughput(packetReceived)
attr title "throughput, vector"
attr unit bps
vector 334 ManetNet.nodoMovil[1].app[0] throughput:vector ETV
attr source throughput(packetReceived)
attr title "throughput, vector"
attr unit bps
vector 335 ManetNet.nodoMovil[2].app[0] throughput:vector ETV
attr source throughput(packetReceived)
attr title "throughput, vector"
attr unit bps
vector 336 ManetNet.nodoMovil[3].app[0] throughput:vector ETV
attr source throughput(packetReceived)
attr title "throughput, vector"
attr unit bps
vector 337 ManetNet.nodoMovil[4].app[0] throughput:vector ETV
attr source throughput(packetReceived)
attr title "throughput, vector"
attr unit bps
vector 338 ManetNet.nodoMovil[5].app[0] throughput:vector ETV
attr source throughput(packetReceived)
attr title "throughput, vector"
attr unit bps
vector 339 ManetNet.nodoMovil[6].app[0] throughput:vector ETV
attr source throughput(packetReceived)
attr title "throughput, vector"
attr unit bps
331	28049	0.1	0
331	28049	0.2	0
331	28049	0.3	0
331	28049	0.4	0
331	28049	0.5	0
331	28049	0.6	0
331	28049	0.7	0
331	28049	0.8	0
331	28049	0.9	0
331	28049	1	0
331	28049	1.1	0
331	28049	1.2	0
331	28049	1.3	0
331	28049	1.4	0
331	28049	1.5	0
331	28049	1.6	0
331	28049	1.7	0
331	28049	1.8	0
331	28049	1.9	0
331	28049	2	0
331	28049	2.1	0
331	28049	2.2	0
331	28049	2.3	0
331	28049	2.4	0
331	28049	2.5	0
331	28049	2.6	0
331	28049	2.7	0
331	28049	2.8	0
331	28049	2.9	0
331	28049	3	0
331	28049	3.1	0
331	28049	3.2	0
331	28049	3.3	0
331	28049	3.4	0
331	28049	3.5	0
331	28049	3.6	0
331	28049	3.7	0
331	28049	3.8	0
331	28049	3.9	0
331	28049	4	0
331	28049	4.1	0
331	28049	4.2	0
331	28049	4.3	0
331	28049	4.4	0
331	28049	4.5	0
331	28049	4.6	0
331	28049	4.7	0
331	28049	4.8	0
331	28049	4.9	0
331	28049	5	0
331	28049	5.1	0
331	28049	5.2	0
331	28049	5.3	0
331	28049	5.4	0
331	28049	5.5	0
331	28049	5.6	0
331	28049	5.7	0
331	28049	5.8	0
331	28049	5.9	0
331	28049	6	0
331	28049	6.1	0
331	28049	6.2	0
331	28049	6.3	0
331	28049	6.4	0
331	28049	6.5	0
331	28049	6.6	0
331	28049	6.7	0
331	28049	6.8	0
331	28049	6.9	0
331	28049	7	0
331	28049	7.1	0
331	28049	7.2	0
331	28049	7.3	0
331	28049	7.4	0
331	28049	7.5	0
331	28049	7.6	0
331	28049	7.7	0
331	28049	7.8	0
331	28049	7.9	0
331	28049	8	0
331	28049	8.1	0
331	28049	8.2	0
331	28049	8.3	0
331	28049	8.4	0
331	28049	8.5	0
331	28049	8.6	0
331	28049	8.7	0
331	28049	8.8	0
331	28049	8.9	0
331	28049	9	0
331	28049	9.1	0
331	28049	9.2	0
331	28049	9.3	0
331	28049	9.364653862171	0
332	28049	0.1	0
332	28049	0.2	0
332	28049	0.3	0
332	28049	0.4	0
332	28049	0.5	0
332	28049	0.6	0
332	28049	0.7	0
332	28049	0.8	0
332	28049	0.9	0
332	28049	1	0
332	28049	1.1	0
332	28049	1.2	0
332	28049	1.3	0
332	28049	1.4	0
332	28049	1.5	0
332	28049	1.6	0
332	28049	1.7	0
332	28049	1.8	0
332	28049	1.9	0
332	28049	2	0
332	28049	2.1	0
332	28049	2.2	0
332	28049	2.3	0
332	28049	2.4	0
332	28049	2.5	0
332	28049	2.6	0
332	28049	2.7	0
332	28049	2.8	0
332	28049	2.9	0
332	28049	3	0
332	28049	3.1	0
332	28049	3.2	0
332	28049	3.3	0
332	28049	3.4	0
332	28049	3.5	0
332	28049	3.6	0
332	28049	3.7	0
332	28049	3.8	0
332	28049	3.9	0
332	28049	4	0
332	28049	4.1	0
332	28049	4.2	0
332	28049	4.3	0
332	28049	4.4	0
332	28049	4.5	0
332	28049	4.6	0
332	28049	4.7	0
332	28049	4.8	0
332	28049	4.9	0
332	28049	5	0
332	28049	5.1	0
332	28049	5.2	0
332	28049	5.3	0
332	28049	5.4	0
332	28049	5.5	0
332	28049	5.6	0
332	28049	5.7	0
332	28049	5.8	0
332	28049	5.9	0
332	28049	6	0
332	28049	6.1	0
332	28049	6.2	0
332	28049	6.3	0
332	28049	6.4	0
332	28049	6.5	0
332	28049	6.6	0
332	28049	6.7	0
332	28049	6.8	0
332	28049	6.9	0
332	28049	7	0
332	28049	7.1	0
332	28049	7.2	0
332	28049	7.3	0
332	28049	7.4	0
332	28049	7.5	0
332	28049	7.6	0
332	28049	7.7	0
332	28049	7.8	0
332	28049	7.9	0
332	28049	8	0
332	28049	8.1	0
332	28049	8.2	0
332	28049	8.3	0
332	28049	8.4	0
332	28049	8.5	0
332	28049	8.6	0
332	28049	8.7	0
332	28049	8.8	0
332	28049	8.9	0
332	28049	9	0
332	28049	9.1	0
332	28049	9.2	0
332	28049	9.3	0
332	28049	9.364653862171	0
333	28049	0.1	0
333	28049	0.2	0
333	28049	0.3	0
333	28049	0.4	0
333	28049	0.5	0
333	28049	0.6	0
333	28049	0.7	0
333	28049	0.8	0
333	28049	0.9	0
333	28049	1	0
333	28049	1.1	0
333	28049	1.2	0
333	28049	1.3	0
333	28049	1.4	0
333	28049	1.5	0
333	28049	1.6	0
333	28049	1.7	0
333	28049	1.8	0
333	28049	1.9	0
333	28049	2	0
333	28049	2.1	0
333	28049	2.2	0
333	28049	2.3	0
333	28049	2.4	0
333	28049	2.5	0
333	28049	2.6	0
333	28049	2.7	0
333	28049	2.8	0
333	28049	2.9	0
333	28049	3	0
333	28049	3.1	0
333	28049	3.2	0
333	28049	3.3	0
333	28049	3.4	0
333	28049	3.5	0
333	28049	3.6	0
333	28049	3.7	0
333	28049	3.8	0
333	28049	3.9	0
333	28049	4	0
333	28049	4.1	0
333	28049	4.2	0
333	28049	4.3	0
333	28049	4.4	0
333	28049	4.5	0
333	28049	4.6	0
333	28049	4.7	0
333	28049	4.8	0
333	28049	4.9	0
333	28049	5	0
333	28049	5.1	0
333	28049	5.2	0
333	28049	5.3	0
333	28049	5.4	0
333	28049	5.5	0
333	28049	5.6	0
333	28049	5.7	0
333	28049	5.8	0
333	28049	5.9	0
333	28049	6	0
333	28049	6.1	0
333	28049	6.2	0
333	28049	6.3	0
333	28049	6.4	0
333	28049	6.5	0
333	28049	6.6	0
333	28049	6.7	0
333	28049	6.8	0
333	28049	6.9	0
333	28049	7	0
333	28049	7.1	0
333	28049	7.2	0
333	28049	7.3	0
333	28049	7.4	0
333	28049	7.5	0
333	28049	7.6	0
333	28049	7.7	0
333	28049	7.8	0
333	28049	7.9	0
333	28049	8	0
333	28049	8.1	0
333	28049	8.2	0
333	28049	8.3	0
333	28049	8.4	0
333	28049	8.5	0
333	28049	8.6	0
333	28049	8.7	0
333	28049	8.8	0
333	28049	8.9	0
333	28049	9	0
333	28049	9.1	0
333	28049	9.2	0
333	28049	9.3	0
333	28049	9.364653862171	0
334	28049	0.1	0
334	28049	0.2	0
334	28049	0.3	0
334	28049	0.4	0
334	28049	0.5	0
334	28049	0.6	0
334	28049	0.7	0
334	28049	0.8	0
334	28049	0.9	0
334	28049	1	0
334	28049	1.1	0
334	28049	1.2	0
334	28049	1.3	0
334	28049	1.4	0
334	28049	1.5	0
334	28049	1.6	0
334	28049	1.7	0
334	28049	1.8	0
334	28049	1.9	0
334	28049	2	0
334	28049	2.1	0
334	28049	2.2	0
334	28049	2.3	0
334	28049	2.4	0
334	28049	2.5	0
334	28049	2.6	0
334	28049	2.7	0
334	28049	2.8	0
334	28049	2.9	0
334	28049	3	0
334	28049	3.1	0
334	28049	3.2	0
334	28049	3.3	0
334	28049	3.4	0
334	28049	3.5	0
334	28049	3.6	0
334	28049	3.7	0
334	28049	3.8	0
334	28049	3.9	0
334	28049	4	0
334	28049	4.1	0
334	28049	4.2	0
334	28049	4.3	0
334	28049	4.4	0
334	28049	4.5	0
334	28049	4.6	0
334	28049	4.7	0
334	28049	4.8	0
334	28049	4.9	0
334	28049	5	0
334	28049	5.1	0
334	28049	5.2	0
334	28049	5.3	0
334	28049	5.4	0
334	28049	5.5	0
334	28049	5.6	0
334	28049	5.7	0
334	28049	5.8	0
334	28049	5.9	0
334	28049	6	0
334	28049	6.1	0
334	28049	6.2	0
334	28049	6.3	0
334	28049	6.4	0
334	28049	6.5	0
334	28049	6.6	0
334	28049	6.7	0
334	28049	6.8	0
334	28049	6.9	0
334	28049	7	0
334	28049	7.1	0
334	28049	7.2	0
334	28049	7.3	0
334	28049	7.4	0
334	28049	7.5	0
334	28049	7.6	0
334	28049	7.7	0
334	28049	7.8	0
334	28049	7.9	0
334	28049	8	0
334	28049	8.1	0
334	28049	8.2	0
334	28049	8.3	0
334	28049	8.4	0
334	28049	8.5	0
334	28049	8.6	0
334	28049	8.7	0
334	28049	8.8	0
334	28049	8.9	0
334	28049	9	0
334	28049	9.1	0
334	28049	9.2	0
334	28049	9.3	0
334	28049	9.364653862171	0
335	28049	0.1	0
335	28049	0.2	0
335	28049	0.3	0
335	28049	0.4	0
335	28049	0.5	0
335	28049	0.6	0
335	28049	0.7	0
335	28049	0.8	0
335	28049	0.9	0
335	28049	1	0
335	28049	1.1	0
335	28049	1.2	0
335	28049	1.3	0
335	28049	1.4	0
335	28049	1.5	0
335	28049	1.6	0
335	28049	1.7	0
335	28049	1.8	0
335	28049	1.9	0
335	28049	2	0
335	28049	2.1	0
335	28049	2.2	0
335	28049	2.3	0
335	28049	2.4	0
335	28049	2.5	0
335	28049	2.6	0
335	28049	2.7	0
335	28049	2.8	0
335	28049	2.9	0
335	28049	3	0
335	28049	3.1	0
335	28049	3.2	0
335	28049	3.3	0
335	28049	3.4	0
335	28049	3.5	0
335	28049	3.6	0
335	28049	3.7	0
335	28049	3.8	0
335	28049	3.9	0
335	28049	4	0
335	28049	4.1	0
335	28049	4.2	0
335	28049	4.3	0
335	28049	4.4	0
335	28049	4.5	0
335	28049	4.6	0
335	28049	4.7	0
335	28049	4.8	0
335	28049	4.9	0
335	28049	5	0
335	28049	5.1	0
335	28049	5.2	0
335	28049	5.3	0
335	28049	5.4	0
335	28049	5.5	0
335	28049	5.6	0
335	28049	5.7	0
335	28049	5.8	0
335	28049	5.9	0
335	28049	6	0
335	28049	6.1	0
335	28049	6.2	0
335	28049	6.3	0
335	28049	6.4	0
335	28049	6.5	0
335	28049	6.6	0
335	28049	6.7	0
335	28049	6.8	0
335	28049	6.9	0
335	28049	7	0
335	28049	7.1	0
335	28049	7.2	0
335	28049	7.3	0
335	28049	7.4	0
335	28049	7.5	0
335	28049	7.6	0
335	28049	7.7	0
335	28049	7.8	0
335	28049	7.9	0
335	28049	8	0
335	28049	8.1	0
335	28049	8.2	0
335	28049	8.3	0
335	28049	8.4	0
335	28049	8.5	0
335	28049	8.6	0
335	28049	8.7	0
335	28049	8.8	0
335	28049	8.9	0
335	28049	9	0
335	28049	9.1	0
335	28049	9.2	0
335	28049	9.3	0
335	28049	9.364653862171	0
336	28049	0.1	0
336	28049	0.2	0
336	28049	0.3	0
336	28049	0.4	0
336	28049	0.5	0
336	28049	0.6	0
336	28049	0.7	0
336	28049	0.8	0
336	28049	0.9	0
336	28049	1	0
336	28049	1.1	0
336	28049	1.2	0
336	28049	1.3	0
336	28049	1.4	0
336	28049	1.5	0
336	28049	1.6	0
336	28049	1.7	0
336	28049	1.8	0
336	28049	1.9	0
336	28049	2	0
336	28049	2.1	0
336	28049	2.2	0
336	28049	2.3	0
336	28049	2.4	0
336	28049	2.5	0
336	28049	2.6	0
336	28049	2.7	0
336	28049	2.8	0
336	28049	2.9	0
336	28049	3	0
336	28049	3.1	0
336	28049	3.2	0
336	28049	3.3	0
336	28049	3.4	0
336	28049	3.5	0
336	28049	3.6	0
336	28049	3.7	0
336	28049	3.8	0
336	28049	3.9	0
336	28049	4	0
336	28049	4.1	0
336	28049	4.2	0
336	28049	4.3	0
336	28049	4.4	0
336	28049	4.5	0
336	28049	4.6	0
336	28049	4.7	0
336	28049	4.8	0
336	28049	4.9	0
336	28049	5	0
336	28049	5.1	0
336	28049	5.2	0
336	28049	5.3	0
336	28049	5.4	0
336	28049	5.5	0
336	28049	5.6	0
336	28049	5.7	0
336	28049	5.8	0
336	28049	5.9	0
336	28049	6	0
336	28049	6.1	0
336	28049	6.2	0
336	28049	6.3	0
336	28049	6.4	0
336	28049	6.5	0
336	28049	6.6	0
336	28049	6.7	0
336	28049	6.8	0
336	28049	6.9	0
336	28049	7	0
336	28049	7.1	0
336	28049	7.2	0
336	28049	7.3	0
336	28049	7.4	0
336	28049	7.5	0
336	28049	7.6	0
336	28049	7.7	0
336	28049	7.8	0
336	28049	7.9	0
336	28049	8	0
336	28049	8.1	0
336	28049	8.2	0
336	28049	8.3	0
336	28049	8.4	0
336	28049	8.5	0
336	28049	8.6	0
336	28049	8.7	0
336	28049	8.8	0
336	28049	8.9	0
336	28049	9	0
336	28049	9.1	0
336	28049	9.2	0
336	28049	9.3	0
336	28049	9.364653862171	0
337	28049	0.1	0
337	28049	0.2	0
337	28049	0.3	0
337	28049	0.4	0
337	28049	0.5	0
337	28049	0.6	0
337	28049	0.7	0
337	28049	0.8	0
337	28049	0.9	0
337	28049	1	0
337	28049	1.1	0
337	28049	1.2	0
337	28049	1.3	0
337	28049	1.4	0
337	28049	1.5	0
337	28049	1.6	0
337	28049	1.7	0
337	28049	1.8	0
337	28049	1.9	0
337	28049	2	0
337	28049	2.1	0
337	28049	2.2	0
337	28049	2.3	0
337	28049	2.4	0
337	28049	2.5	0
337	28049	2.6	0
337	28049	2.7	0
337	28049	2.8	0
337	28049	2.9	0
337	28049	3	0
337	28049	3.1	0
337	28049	3.2	0
337	28049	3.3	0
337	28049	3.4	0
337	28049	3.5	0
337	28049	3.6	0
337	28049	3.7	0
337	28049	3.8	0
337	28049	3.9	0
337	28049	4	0
337	28049	4.1	0
337	28049	4.2	0
337	28049	4.3	0
337	28049	4.4	0
337	28049	4.5	0
337	28049	4.6	0
337	28049	4.7	0
337	28049	4.8	0
337	28049	4.9	0
337	28049	5	0
337	28049	5.1	0
337	28049	5.2	0
337	28049	5.3	0
337	28049	5.4	0
337	28049	5.5	0
337	28049	5.6	0
337	28049	5.7	0
337	28049	5.8	0
337	28049	5.9	0
337	28049	6	0
337	28049	6.1	0
337	28049	6.2	0
337	28049	6.3	0
337	28049	6.4	0
337	28049	6.5	0
337	28049	6.6	0
337	28049	6.7	0
337	28049	6.8	0
337	28049	6.9	0
337	28049	7	0
337	28049	7.1	0
337	28049	7.2	0
337	28049	7.3	0
337	28049	7.4	0
337	28049	7.5	0
337	28049	7.6	0
337	28049	7.7	0
337	28049	7.8	0
337	28049	7.9	0
337	28049	8	0
337	28049	8.1	0
337	28049	8.2	0
337	28049	8.3	0
337	28049	8.4	0
337	28049	8.5	0
337	28049	8.6	0
337	28049	8.7	0
337	28049	8.8	0
337	28049	8.9	0
337	28049	9	0
337	28049	9.1	0
337	28049	9.2	0
337	28049	9.3	0
337	28049	9.364653862171	0
338	28049	0.1	0
338	28049	0.2	0
338	28049	0.3	0
338	28049	0.4	0
338	28049	0.5	0
338	28049	0.6	0
338	28049	0.7	0
338	28049	0.8	0
338	28049	0.9	0
338	28049	1	0
338	28049	1.1	0
338	28049	1.2	0
338	28049	1.3	0
338	28049	1.4	0
338	28049	1.5	0
338	28049	1.6	0
338	28049	1.7	0
338	28049	1.8	0
338	28049	1.9	0
338	28049	2	0
338	28049	2.1	0
338	28049	2.2	0
338	28049	2.3	0
338	28049	2.4	0
338	28049	2.5	0
338	28049	2.6	0
338	28049	2.7	0
338	28049	2.8	0
338	28049	2.9	0
338	28049	3	0
338	28049	3.1	0
338	28049	3.2	0
338	28049	3.3	0
338	28049	3.4	0
338	28049	3.5	0
338	28049	3.6	0
338	28049	3.7	0
338	28049	3.8	0
338	28049	3.9	0
338	28049	4	0
338	28049	4.1	0
338	28049	4.2	0
338	28049	4.3	0
338	28049	4.4	0
338	28049	4.5	0
338	28049	4.6	0
338	28049	4.7	0
338	28049	4.8	0
338	28049	4.9	0
338	28049	5	0
338	28049	5.1	0
338	28049	5.2	0
338	28049	5.3	0
338	28049	5.4	0
338	28049	5.5	0
338	28049	5.6	0
338	28049	5.7	0
338	28049	5.8	0
338	28049	5.9	0
338	28049	6	0
338	28049	6.1	0
338	28049	6.2	0
338	28049	6.3	0
338	28049	6.4	0
338	28049	6.5	0
338	28049	6.6	0
338	28049	6.7	0
338	28049	6.8	0
338	28049	6.9	0
338	28049	7	0
338	28049	7.1	0
338	28049	7.2	0
338	28049	7.3	0
338	28049	7.4	0
338	28049	7.5	0
338	28049	7.6	0
338	28049	7.7	0
338	28049	7.8	0
338	28049	7.9	0
338	28049	8	0
338	28049	8.1	0
338	28049	8.2	0
338	28049	8.3	0
338	28049	8.4	0
338	28049	8.5	0
338	28049	8.6	0
338	28049	8.7	0
338	28049	8.8	0
338	28049	8.9	0
338	28049	9	0
338	28049	9.1	0
338	28049	9.2	0
338	28049	9.3	0
338	28049	9.364653862171	0
339	28049	0.1	0
339	28049	0.2	0
339	28049	0.3	0
339	28049	0.4	0
339	28049	0.5	0
339	28049	0.6	0
339	28049	0.7	0
339	28049	0.8	0
339	28049	0.9	0
339	28049	1	0
339	28049	1.1	0
339	28049	1.2	0
339	28049	1.3	0
339	28049	1.4	0
339	28049	1.5	0
339	28049	1.6	0
339	28049	1.7	0
339	28049	1.8	0
339	28049	1.9	0
339	28049	2	0
339	28049	2.1	0
339	28049	2.2	0
339	28049	2.3	0
339	28049	2.4	0
339	28049	2.5	0
339	28049	2.6	0
339	28049	2.7	0
339	28049	2.8	0
339	28049	2.9	0
339	28049	3	0
339	28049	3.1	0
339	28049	3.2	0
339	28049	3.3	0
339	28049	3.4	0
339	28049	3.5	0
339	28049	3.6	0
339	28049	3.7	0
339	28049	3.8	0
339	28049	3.9	0
339	28049	4	0
339	28049	4.1	0
339	28049	4.2	0
339	28049	4.3	0
339	28049	4.4	0
339	28049	4.5	0
339	28049	4.6	0
339	28049	4.7	0
339	28049	4.8	0
339	28049	4.9	0
339	28049	5	0
339	28049	5.1	0
339	28049	5.2	0
339	28049	5.3	0
339	28049	5.4	0
339	28049	5.5	0
339	28049	5.6	0
339	28049	5.7	0
339	28049	5.8	0
339	28049	5.9	0
339	28049	6	0
339	28049	6.1	0
339	28049	6.2	0
339	28049	6.3	0
339	28049	6.4	0
339	28049	6.5	0
339	28049	6.6	0
339	28049	6.7	0
339	28049	6.8	0
339	28049	6.9	0
339	28049	7	0
339	28049	7.1	0
339	28049	7.2	0
339	28049	7.3	0
339	28049	7.4	0
339	28049	7.5	0
339	28049	7.6	0
339	28049	7.7	0
339	28049	7.8	0
339	28049	7.9	0
339	28049	8	0
339	28049	8.1	0
339	28049	8.2	0
339	28049	8.3	0
339	28049	8.4	0
339	28049	8.5	0
339	28049	8.6	0
339	28049	8.7	0
339	28049	8.8	0
339	28049	8.9	0
339	28049	9	0
339	28049	9.1	0
339	28049	9.2	0
339	28049	9.3	0
339	28049	9.364653862171	0

