version 2
run AODV-0-20251227-17:24:30-1146
attr configname AODV
attr datetime 20251227-17:24:30
attr experiment AODV
attr inifile netconf.ini
attr iterationvars ""
attr iterationvarsf ""
attr measurement ""
attr network ManetNet
attr processid 1146
attr repetition 0
attr replication #0
attr resultdir results
attr runnumber 0
attr seedset 0
param **.routingApp.typename "\"Aodv\""
param *.numMobile 7
param **.wlan[*].typename "\"Ieee80211Interface\""
param **.wlan[*].mgmtType "\"Ieee80211MgmtAdhoc\""
param **.wlan[*].mac.opMode "\"g(54Mbps)\""
param **.wlan[*].radio.typename "\"Ieee80211Radio\""
param **.wlan[*].radio.transmitter.power 20mW
param **.wlan[*].radio.transmitter.bitrate 54Mbps
param **.wlan[*].radio.receiver.sensitivity -85dBm
param **.wlan[*].radio.receiver.snirThreshold 4dB
param **.wlan[*].radio.transmitter.communicationRange 400m
param **.nodoMovil[*].mobility.typename "\"RandomWaypointMobility\""
param **.nodoMovil[*].mobility.initialX "uniform(0m, 1200m)"
param **.nodoMovil[*].mobility.initialY "uniform(0m, 600m)"
param **.nodoMovil[*].mobility.initialZ 0m
param **.nodoMovil[*].mobility.speed "uniform(1mps, 10mps)"
param **.nodoMovil[*].mobility.waitTime 0s
param **.mobility.constraintAreaMinX 0m
param **.mobility.constraintAreaMinY 0m
param **.mobility.constraintAreaMinZ 0m
param **.mobility.constraintAreaMaxX 1200m
param **.mobility.constraintAreaMaxY 600m
param **.mobility.constraintAreaMaxZ 0m
param **.nodoFijo*.mobility.typename "\"StationaryMobility\""
param **.nodoFijo1.mobility.initialX 0m
param **.nodoFijo1.mobility.initialY 300m
param **.nodoFijo2.mobility.initialX 1200m
param **.nodoFijo2.mobility.initialY 300m
param **.nodoMovil[*].numApps 1
param **.nodoMovil[*].app[0].typename "\"UdpBasicApp\""
param **.nodoMovil[*].app[0].destAddresses "\"nodoMovil[0] nodoMovil[1] nodoMovil[2] nodoMovil[3] nodoMovil[4] nodoMovil[5]\""
param **.nodoMovil[*].app[0].destPort 4000
param **.nodoMovil[*].app[0].startTime uniform(5s,10s)
param **.nodoMovil[*].app[0].messageLength 256B
param **.nodoMovil[*].app[0].sendInterval 50ms
param **.nodoFijo1.numApps 1
param **.nodoFijo2.numApps 1
param **.nodoFijo1.app[0].typename "\"UdpBasicApp\""
param **.nodoFijo1.app[0].destAddresses "\"nodoFijo2\""
param **.nodoFijo1.app[0].destPort 5000
param **.nodoFijo1.app[0].startTime 5s
param **.nodoFijo1.app[0].messageLength 512B
param **.nodoFijo1.app[0].sendInterval 20ms
param **.nodoFijo2.app[0].typename "\"UdpSink\""
param **.nodoFijo2.app[0].localPort 5000

scalar ManetNet.radioMedium.propagation "Arrival computation count" 5440
scalar ManetNet.radioMedium "transmission count" 680
scalar ManetNet.radioMedium "signal send count" 5440
scalar ManetNet.radioMedium "reception computation count" 5435
scalar ManetNet.radioMedium "interference computation count" 16987
scalar ManetNet.radioMedium "reception decision computation count" 5427
scalar ManetNet.radioMedium "listening decision computation count" 6125
scalar ManetNet.radioMedium "reception cache hit" 85.704140144142
attr unit %
scalar ManetNet.radioMedium "interference cache hit" 66.666666666667
attr unit %
scalar ManetNet.radioMedium "noise cache hit" 0
attr unit %
scalar ManetNet.radioMedium "snir cache hit" 50
attr unit %
scalar ManetNet.radioMedium "reception decision cache hit" 50
attr unit %
scalar ManetNet.radioMedium "reception result cache hit" 0
attr unit %
scalar ManetNet.nodoFijo1.lo[0].lo rcvdPkFromHl:count 0
attr interpolationmode none
attr source packetReceivedFromUpper
attr title "packets received from higher layer, count"
scalar ManetNet.nodoFijo1.lo[0].lo rcvdPkFromHl:sum(packetBytes) 0
attr interpolationmode none
attr source packetReceivedFromUpper
attr title "packets received from higher layer, sum(packetBytes)"
scalar ManetNet.nodoFijo1.lo[0].lo passedUpPk:count 0
attr interpolationmode none
attr source packetSentToUpper
attr title "packets passed to higher layer, count"
scalar ManetNet.nodoFijo1.lo[0].lo passedUpPk:sum(packetBytes) 0
attr interpolationmode none
attr source packetSentToUpper
attr title "packets passed to higher layer, sum(packetBytes)"
scalar ManetNet.nodoFijo1.wlan[0].mac.dcf.channelAccess.pendingQueue packetPopped:count 5
attr interpolationmode none
attr title "packet popped, count"
scalar ManetNet.nodoFijo1.wlan[0].mac.dcf.channelAccess.pendingQueue packetPopped:sum(packetBytes) 320
attr interpolationmode none
attr title "packet popped, sum(packetBytes)"
statistic ManetNet.nodoFijo1.wlan[0].mac.dcf.channelAccess.pendingQueue queueingTime:histogram
field count 5
field mean 0
field stddev 0
field min 0
field max 0
field sum 0
field sqrsum 0
attr interpolationmode none
attr source queueingTime(packetPopped)
attr title "queueing times, histogram"
attr unit s
bin	-inf	0
bin	-0.5	0
bin	-0.48	0
bin	-0.46	0
bin	-0.44	0
bin	-0.42	0
bin	-0.4	0
bin	-0.38	0
bin	-0.36	0
bin	-0.34	0
bin	-0.32	0
bin	-0.3	0
bin	-0.28	0
bin	-0.26	0
bin	-0.24	0
bin	-0.22	0
bin	-0.2	0
bin	-0.18	0
bin	-0.16	0
bin	-0.14	0
bin	-0.12	0
bin	-0.1	0
bin	-0.08	0
bin	-0.06	0
bin	-0.04	0
bin	-0.02	0
bin	0	5
bin	0.02	0
bin	0.04	0
bin	0.06	0
bin	0.08	0
bin	0.1	0
bin	0.12	0
bin	0.14	0
bin	0.16	0
bin	0.18	0
bin	0.2	0
bin	0.22	0
bin	0.24	0
bin	0.26	0
bin	0.28	0
bin	0.3	0
bin	0.32	0
bin	0.34	0
bin	0.36	0
bin	0.38	0
bin	0.4	0
bin	0.42	0
bin	0.44	0
bin	0.46	0
bin	0.48	0
bin	0.5	0
scalar ManetNet.nodoFijo1.wlan[0].mac.dcf.channelAccess.pendingQueue queueLength:max 1
attr interpolationmode sample-hold
attr source "count(packetPushed) - count(packetPopped) - count(packetRemoved) - count(packetDropped)"
attr title "queue length, max"
scalar ManetNet.nodoFijo1.wlan[0].mac.dcf.channelAccess.pendingQueue queueLength:timeavg 0
attr interpolationmode sample-hold
attr source "count(packetPushed) - count(packetPopped) - count(packetRemoved) - count(packetDropped)"
attr title "queue length, timeavg"
scalar ManetNet.nodoFijo1.wlan[0].mac.dcf.channelAccess.pendingQueue packetPushed:count 5
attr interpolationmode none
attr title "packet pushed, count"
scalar ManetNet.nodoFijo1.wlan[0].mac.dcf.channelAccess.pendingQueue packetPushed:sum(packetBytes) 320
attr interpolationmode none
attr title "packet pushed, sum(packetBytes)"
scalar ManetNet.nodoFijo1.wlan[0].mac.dcf.channelAccess.pendingQueue packetDropQueueOverflow:count 0
attr interpolationmode none
attr source packetDropReasonIsQueueOverflow(packetDropped)
attr title "packet drops: queue overflow, count"
scalar ManetNet.nodoFijo1.wlan[0].mac.dcf.channelAccess.pendingQueue packetDropQueueOverflow:sum(packetBytes) 0
attr interpolationmode none
attr source packetDropReasonIsQueueOverflow(packetDropped)
attr title "packet drops: queue overflow, sum(packetBytes)"
scalar ManetNet.nodoFijo1.wlan[0].mac.dcf.channelAccess.pendingQueue packetRemoved:count 0
attr interpolationmode none
attr title "packets removed, count"
scalar ManetNet.nodoFijo1.wlan[0].mac.dcf.channelAccess.pendingQueue packetRemoved:sum(packetBytes) 0
attr interpolationmode none
attr title "packets removed, sum(packetBytes)"
statistic ManetNet.nodoFijo1.wlan[0].mac.dcf.channelAccess.inProgressFrames queueingTime:histogram
field count 5
field mean 5e-05
field stddev 0
field min 5e-05
field max 5e-05
field sum 0.00025
field sqrsum 1.25e-08
attr interpolationmode none
attr source queueingTime(packetDequeued)
attr title "queueing times, histogram"
bin	-inf	0
bin	0	5
bin	0.01	0
bin	0.02	0
bin	0.03	0
bin	0.04	0
bin	0.05	0
bin	0.06	0
bin	0.07	0
bin	0.08	0
bin	0.09	0
bin	0.1	0
bin	0.11	0
bin	0.12	0
bin	0.13	0
bin	0.14	0
bin	0.15	0
bin	0.16	0
bin	0.17	0
bin	0.18	0
bin	0.19	0
bin	0.2	0
bin	0.21	0
bin	0.22	0
bin	0.23	0
bin	0.24	0
bin	0.25	0
bin	0.26	0
bin	0.27	0
bin	0.28	0
bin	0.29	0
bin	0.3	0
bin	0.31	0
bin	0.32	0
bin	0.33	0
bin	0.34	0
bin	0.35	0
bin	0.36	0
bin	0.37	0
bin	0.38	0
bin	0.39	0
bin	0.4	0
bin	0.41	0
bin	0.42	0
bin	0.43	0
bin	0.44	0
bin	0.45	0
bin	0.46	0
bin	0.47	0
bin	0.48	0
bin	0.49	0
bin	0.5	0
bin	0.51	0
scalar ManetNet.nodoFijo1.wlan[0].mac.dcf.channelAccess.inProgressFrames queueLength:max 1
attr interpolationmode sample-hold
attr source "count(packetEnqueued) - count(packetDequeued)"
attr title "queue length, max"
scalar ManetNet.nodoFijo1.wlan[0].mac.dcf.channelAccess.inProgressFrames queueLength:timeavg 5.7278310696475e-05
attr interpolationmode sample-hold
attr source "count(packetEnqueued) - count(packetDequeued)"
attr title "queue length, timeavg"
scalar ManetNet.nodoFijo1.wlan[0].mac.dcf.channelAccess.contention channelAccessGranted:count 5
attr title "channel access granted, count"
scalar ManetNet.nodoFijo1.wlan[0].mac.dcf.channelAccess.contention stateChanged:count 2740
attr interpolationmode none
attr title "contention state changed, count"
scalar ManetNet.nodoFijo1.wlan[0].mac.dcf.channelAccess channelOwnershipChanged:count 10
attr interpolationmode sample-hold
attr title "channel ownership, count"
scalar ManetNet.nodoFijo1.wlan[0].mac.dcf.originatorMacDataService packetAggregated:count 0
attr title "packets aggregated, count"
scalar ManetNet.nodoFijo1.wlan[0].mac.dcf.originatorMacDataService packetFragmented:count 0
attr title "packets fragmented, count"
scalar ManetNet.nodoFijo1.wlan[0].mac.dcf.recipientMacDataService packetDeaggregated:count 0
attr title "packets deaggregated, count"
scalar ManetNet.nodoFijo1.wlan[0].mac.dcf.recipientMacDataService packetDefragmented:count 21
attr title "packets defragmented, count"
scalar ManetNet.nodoFijo1.wlan[0].mac.dcf.recipientMacDataService packetDropDuplicateDetected:count 0
attr interpolationmode none
attr source packetDropReasonIsDuplicateDetected(packetDropped)
attr title "packet drops: duplicate detected, count"
scalar ManetNet.nodoFijo1.wlan[0].mac.dcf.recipientMacDataService packetDropDuplicateDetected:sum(packetBytes) 0
attr interpolationmode none
attr source packetDropReasonIsDuplicateDetected(packetDropped)
attr title "packet drops: duplicate detected, sum(packetBytes)"
scalar ManetNet.nodoFijo1.wlan[0].mac.dcf.recoveryProcedure retryLimitReached:count 0
attr title "retry limit reached, count"
scalar ManetNet.nodoFijo1.wlan[0].mac.dcf frameSequenceFinished:count 5
attr title "finished frame sequences, count"
statistic ManetNet.nodoFijo1.wlan[0].mac.dcf frameSequenceDuration:histogram
field count 5
field mean 5e-05
field stddev 0
field min 5e-05
field max 5e-05
field sum 0.00025
field sqrsum 1.25e-08
attr source frameSequenceDuration(frameSequenceFinished)
attr title "frame sequence durations, histogram"
bin	-inf	0
bin	0	5
bin	0.01	0
bin	0.02	0
bin	0.03	0
bin	0.04	0
bin	0.05	0
bin	0.06	0
bin	0.07	0
bin	0.08	0
bin	0.09	0
bin	0.1	0
bin	0.11	0
bin	0.12	0
bin	0.13	0
bin	0.14	0
bin	0.15	0
bin	0.16	0
bin	0.17	0
bin	0.18	0
bin	0.19	0
bin	0.2	0
bin	0.21	0
bin	0.22	0
bin	0.23	0
bin	0.24	0
bin	0.25	0
bin	0.26	0
bin	0.27	0
bin	0.28	0
bin	0.29	0
bin	0.3	0
bin	0.31	0
bin	0.32	0
bin	0.33	0
bin	0.34	0
bin	0.35	0
bin	0.36	0
bin	0.37	0
bin	0.38	0
bin	0.39	0
bin	0.4	0
bin	0.41	0
bin	0.42	0
bin	0.43	0
bin	0.44	0
bin	0.45	0
bin	0.46	0
bin	0.47	0
bin	0.48	0
bin	0.49	0
bin	0.5	0
bin	0.51	0
statistic ManetNet.nodoFijo1.wlan[0].mac.dcf frameSequenceNumPackets:histogram
field count 5
field mean 1
field stddev 0
field min 1
field max 1
field sum 5
field sqrsum 5
attr source frameSequenceNumPackets(frameSequenceFinished)
attr title "frame sequences: number of packets, histogram"
bin	-inf	0
bin	0	0
bin	1	5
bin	2	0
scalar ManetNet.nodoFijo1.wlan[0].mac.dcf packetReceivedFromPeer:count 21
attr interpolationmode none
attr title "packets received, count"
scalar ManetNet.nodoFijo1.wlan[0].mac.dcf packetReceivedFromPeer:sum(packetBytes) 1344
attr interpolationmode none
attr title "packets received, sum(packetBytes)"
scalar ManetNet.nodoFijo1.wlan[0].mac.dcf packetReceivedFromPeerUnicast:count 0
attr interpolationmode none
attr source ieee80211Unicast(packetReceivedFromPeer)
attr title "packets received: unicast, count"
scalar ManetNet.nodoFijo1.wlan[0].mac.dcf packetReceivedFromPeerUnicast:sum(packetBytes) 0
attr interpolationmode none
attr source ieee80211Unicast(packetReceivedFromPeer)
attr title "packets received: unicast, sum(packetBytes)"
scalar ManetNet.nodoFijo1.wlan[0].mac.dcf packetReceivedFromPeerMulticast:count 21
attr interpolationmode none
attr source ieee80211Multicast(packetReceivedFromPeer)
attr title "packets received: multicast, count"
scalar ManetNet.nodoFijo1.wlan[0].mac.dcf packetReceivedFromPeerMulticast:sum(packetBytes) 1344
attr interpolationmode none
attr source ieee80211Multicast(packetReceivedFromPeer)
attr title "packets received: multicast, sum(packetBytes)"
scalar ManetNet.nodoFijo1.wlan[0].mac.dcf packetReceivedFromPeerBroadcast:count 21
attr interpolationmode none
attr source ieee80211Broadcast(packetReceivedFromPeer)
attr title "packets received: broadcast, count"
scalar ManetNet.nodoFijo1.wlan[0].mac.dcf packetReceivedFromPeerBroadcast:sum(packetBytes) 1344
attr interpolationmode none
attr source ieee80211Broadcast(packetReceivedFromPeer)
attr title "packets received: broadcast, sum(packetBytes)"
scalar ManetNet.nodoFijo1.wlan[0].mac.dcf packetReceivedFromPeerWithRetry:count 0
attr interpolationmode none
attr source ieee80211Retry(packetReceivedFromPeer)
attr title "packets received: with retry, count"
scalar ManetNet.nodoFijo1.wlan[0].mac.dcf packetReceivedFromPeerWithRetry:sum(packetBytes) 0
attr interpolationmode none
attr source ieee80211Retry(packetReceivedFromPeer)
attr title "packets received: with retry, sum(packetBytes)"
scalar ManetNet.nodoFijo1.wlan[0].mac.dcf packetReceivedFromPeerWithoutRetry:count 21
attr interpolationmode none
attr source ieee80211NotRetry(packetReceivedFromPeer)
attr title "packets received: without retry, count"
scalar ManetNet.nodoFijo1.wlan[0].mac.dcf packetReceivedFromPeerWithoutRetry:sum(packetBytes) 1344
attr interpolationmode none
attr source ieee80211NotRetry(packetReceivedFromPeer)
attr title "packets received: without retry, sum(packetBytes)"
scalar ManetNet.nodoFijo1.wlan[0].mac.dcf packetSentToPeer:count 5
attr interpolationmode none
attr title "packets sent, count"
scalar ManetNet.nodoFijo1.wlan[0].mac.dcf packetSentToPeer:sum(packetBytes) 320
attr interpolationmode none
attr title "packets sent, sum(packetBytes)"
scalar ManetNet.nodoFijo1.wlan[0].mac.dcf packetSentToPeerUnicast:count 0
attr interpolationmode none
attr source ieee80211Unicast(packetSentToPeer)
attr title "packets sent: unicast, count"
scalar ManetNet.nodoFijo1.wlan[0].mac.dcf packetSentToPeerUnicast:sum(packetBytes) 0
attr interpolationmode none
attr source ieee80211Unicast(packetSentToPeer)
attr title "packets sent: unicast, sum(packetBytes)"
scalar ManetNet.nodoFijo1.wlan[0].mac.dcf packetSentToPeerMulticast:count 5
attr interpolationmode none
attr source ieee80211Multicast(packetSentToPeer)
attr title "packets sent: multicast, count"
scalar ManetNet.nodoFijo1.wlan[0].mac.dcf packetSentToPeerMulticast:sum(packetBytes) 320
attr interpolationmode none
attr source ieee80211Multicast(packetSentToPeer)
attr title "packets sent: multicast, sum(packetBytes)"
scalar ManetNet.nodoFijo1.wlan[0].mac.dcf packetSentToPeerBroadcast:count 5
attr interpolationmode none
attr source ieee80211Broadcast(packetSentToPeer)
attr title "packets sent: broadcast , count"
scalar ManetNet.nodoFijo1.wlan[0].mac.dcf packetSentToPeerBroadcast:sum(packetBytes) 320
attr interpolationmode none
attr source ieee80211Broadcast(packetSentToPeer)
attr title "packets sent: broadcast , sum(packetBytes)"
scalar ManetNet.nodoFijo1.wlan[0].mac.dcf packetSentToPeerWithRetry:count 0
attr interpolationmode none
attr source ieee80211Retry(packetSentToPeer)
attr title "packets sent: with retry, count"
scalar ManetNet.nodoFijo1.wlan[0].mac.dcf packetSentToPeerWithRetry:sum(packetBytes) 0
attr interpolationmode none
attr source ieee80211Retry(packetSentToPeer)
attr title "packets sent: with retry, sum(packetBytes)"
scalar ManetNet.nodoFijo1.wlan[0].mac.dcf packetSentToPeerWithoutRetry:count 5
attr interpolationmode none
attr source ieee80211NotRetry(packetSentToPeer)
attr title "packets sent: without retry, count"
scalar ManetNet.nodoFijo1.wlan[0].mac.dcf packetSentToPeerWithoutRetry:sum(packetBytes) 320
attr interpolationmode none
attr source ieee80211NotRetry(packetSentToPeer)
attr title "packets sent: without retry, sum(packetBytes)"
scalar ManetNet.nodoFijo1.wlan[0].mac.dcf packetDrop:count 653
attr interpolationmode none
attr source packetDropped
attr title "packet drops, count"
scalar ManetNet.nodoFijo1.wlan[0].mac.dcf packetDrop:sum(packetBytes) 68944
attr interpolationmode none
attr source packetDropped
attr title "packet drops, sum(packetBytes)"
scalar ManetNet.nodoFijo1.wlan[0].mac.dcf packetDropNotAddressedToUs:count 653
attr interpolationmode none
attr source packetDropReasonIsNotAddressedToUs(packetDropped)
attr title "packet drops: not addressed to us, count"
scalar ManetNet.nodoFijo1.wlan[0].mac.dcf packetDropNotAddressedToUs:sum(packetBytes) 68944
attr interpolationmode none
attr source packetDropReasonIsNotAddressedToUs(packetDropped)
attr title "packet drops: not addressed to us, sum(packetBytes)"
scalar ManetNet.nodoFijo1.wlan[0].mac.dcf packetDropQueueOverflow:count 0
attr interpolationmode none
attr source packetDropReasonIsQueueOverflow(packetDropped)
attr title "packet drops: queue overflow, count"
scalar ManetNet.nodoFijo1.wlan[0].mac.dcf packetDropQueueOverflow:sum(packetBytes) 0
attr interpolationmode none
attr source packetDropReasonIsQueueOverflow(packetDropped)
attr title "packet drops: queue overflow, sum(packetBytes)"
scalar ManetNet.nodoFijo1.wlan[0].mac.dcf packetDropRetryLimitReached:count 0
attr interpolationmode none
attr source packetDropReasonIsRetryLimitReached(packetDropped)
attr title "packet drops: retry limit reached, count"
scalar ManetNet.nodoFijo1.wlan[0].mac.dcf packetDropRetryLimitReached:sum(packetBytes) 0
attr interpolationmode none
attr source packetDropReasonIsRetryLimitReached(packetDropped)
attr title "packet drops: retry limit reached, sum(packetBytes)"
scalar ManetNet.nodoFijo1.wlan[0].mac.dcf linkBroken:count 0
attr interpolationmode none
attr title "link breaks, count"
scalar ManetNet.nodoFijo1.wlan[0].mac packetReceivedFromLower:count 674
attr interpolationmode none
attr title "packets received from lower layer, count"
scalar ManetNet.nodoFijo1.wlan[0].mac packetReceivedFromLower:sum(packetBytes) 70288
attr interpolationmode none
attr title "packets received from lower layer, sum(packetBytes)"
scalar ManetNet.nodoFijo1.wlan[0].mac packetSentToLower:count 5
attr interpolationmode none
attr title "packets sent to lower layer, count"
scalar ManetNet.nodoFijo1.wlan[0].mac packetSentToLower:sum(packetBytes) 320
attr interpolationmode none
attr title "packets sent to lower layer, sum(packetBytes)"
scalar ManetNet.nodoFijo1.wlan[0].mac packetReceivedFromUpper:count 5
attr interpolationmode none
attr title "packets received from upper layer, count"
scalar ManetNet.nodoFijo1.wlan[0].mac packetReceivedFromUpper:sum(packetBytes) 180
attr interpolationmode none
attr title "packets received from upper layer, sum(packetBytes)"
scalar ManetNet.nodoFijo1.wlan[0].mac packetSentToUpper:count 21
attr interpolationmode none
attr title "packets sent to upper layer, count"
scalar ManetNet.nodoFijo1.wlan[0].mac packetSentToUpper:sum(packetBytes) 756
attr interpolationmode none
attr title "packets sent to upper layer, sum(packetBytes)"
scalar ManetNet.nodoFijo1.wlan[0].mac packetDrop:count 653
attr interpolationmode none
attr source packetDropped
attr title "packet drops, count"
scalar ManetNet.nodoFijo1.wlan[0].mac packetDrop:sum(packetBytes) 68944
attr interpolationmode none
attr source packetDropped
attr title "packet drops, sum(packetBytes)"
scalar ManetNet.nodoFijo1.wlan[0].mac packetDropIncorrectlyReceived:count 0
attr interpolationmode none
attr source packetDropReasonIsIncorrectlyReceived(packetDropped)
attr title "packet drops: incorrectly received, count"
scalar ManetNet.nodoFijo1.wlan[0].mac packetDropIncorrectlyReceived:sum(packetBytes) 0
attr interpolationmode none
attr source packetDropReasonIsIncorrectlyReceived(packetDropped)
attr title "packet drops: incorrectly received, sum(packetBytes)"
scalar ManetNet.nodoFijo1.wlan[0].mac packetDropNotAddressedToUs:count 653
attr interpolationmode none
attr source packetDropReasonIsNotAddressedToUs(packetDropped)
attr title "packet drops: not addressed to us, count"
scalar ManetNet.nodoFijo1.wlan[0].mac packetDropNotAddressedToUs:sum(packetBytes) 68944
attr interpolationmode none
attr source packetDropReasonIsNotAddressedToUs(packetDropped)
attr title "packet drops: not addressed to us, sum(packetBytes)"
scalar ManetNet.nodoFijo1.wlan[0].mac packetDropQueueOverflow:count 0
attr interpolationmode none
attr source packetDropReasonIsQueueOverflow(packetDropped)
attr title "packet drops: queue overflow, count"
scalar ManetNet.nodoFijo1.wlan[0].mac packetDropQueueOverflow:sum(packetBytes) 0
attr interpolationmode none
attr source packetDropReasonIsQueueOverflow(packetDropped)
attr title "packet drops: queue overflow, sum(packetBytes)"
scalar ManetNet.nodoFijo1.wlan[0].mac packetDropRetryLimitReached:count 0
attr interpolationmode none
attr source packetDropReasonIsRetryLimitReached(packetDropped)
attr title "packet drops: retry limit reached, count"
scalar ManetNet.nodoFijo1.wlan[0].mac packetDropRetryLimitReached:sum(packetBytes) 0
attr interpolationmode none
attr source packetDropReasonIsRetryLimitReached(packetDropped)
attr title "packet drops: retry limit reached, sum(packetBytes)"
scalar ManetNet.nodoFijo1.wlan[0].mac packetDropDuplicateDetected:count 0
attr interpolationmode none
attr source packetDropReasonIsDuplicateDetected(packetDropped)
attr title "packet drops: duplicate detected, count"
scalar ManetNet.nodoFijo1.wlan[0].mac packetDropDuplicateDetected:sum(packetBytes) 0
attr interpolationmode none
attr source packetDropReasonIsDuplicateDetected(packetDropped)
attr title "packet drops: duplicate detected, sum(packetBytes)"
scalar ManetNet.nodoFijo1.wlan[0].mac packetDropOther:count 0
attr interpolationmode none
attr source packetDropReasonIsOther(packetDropped)
attr title "packet drops: other, count"
scalar ManetNet.nodoFijo1.wlan[0].mac packetDropOther:sum(packetBytes) 0
attr interpolationmode none
attr source packetDropReasonIsOther(packetDropped)
attr title "packet drops: other, sum(packetBytes)"
scalar ManetNet.nodoFijo1.wlan[0].mac linkBroken:count 0
attr interpolationmode none
attr title "link breaks, count"
statistic ManetNet.nodoFijo1.wlan[0].radio radioChannel:histogram
field count 1
field mean 0
field stddev -nan
field min 0
field max 0
field sum 0
field sqrsum 0
attr interpolationmode sample-hold
attr source radioChannelChanged
attr title "Radio channel, histogram"
bin	-inf	0
bin	-0.5	0
bin	-0.48	0
bin	-0.46	0
bin	-0.44	0
bin	-0.42	0
bin	-0.4	0
bin	-0.38	0
bin	-0.36	0
bin	-0.34	0
bin	-0.32	0
bin	-0.3	0
bin	-0.28	0
bin	-0.26	0
bin	-0.24	0
bin	-0.22	0
bin	-0.2	0
bin	-0.18	0
bin	-0.16	0
bin	-0.14	0
bin	-0.12	0
bin	-0.1	0
bin	-0.08	0
bin	-0.06	0
bin	-0.04	0
bin	-0.02	0
bin	0	1
bin	0.02	0
bin	0.04	0
bin	0.06	0
bin	0.08	0
bin	0.1	0
bin	0.12	0
bin	0.14	0
bin	0.16	0
bin	0.18	0
bin	0.2	0
bin	0.22	0
bin	0.24	0
bin	0.26	0
bin	0.28	0
bin	0.3	0
bin	0.32	0
bin	0.34	0
bin	0.36	0
bin	0.38	0
bin	0.4	0
bin	0.42	0
bin	0.44	0
bin	0.46	0
bin	0.48	0
bin	0.5	0
scalar ManetNet.nodoFijo1.wlan[0].radio radioMode:count 13
attr interpolationmode sample-hold
attr source radioModeChanged
attr title "Radio mode, count"
scalar ManetNet.nodoFijo1.wlan[0].radio receptionState:count 1359
attr interpolationmode sample-hold
attr source receptionStateChanged
attr title "Radio reception state, count"
scalar ManetNet.nodoFijo1.wlan[0].radio transmissionState:count 20
attr interpolationmode sample-hold
attr source transmissionStateChanged
attr title "Radio transmission state, count"
statistic ManetNet.nodoFijo1.wlan[0].radio minSnir:histogram
field count 674
field mean 678.53076808647
field stddev 84.619627092073
field min 582.85743799095
field max 854.53911029263
field sum 457329.73769028
field sqrsum 315131302.09141
attr source minimumSnir(packetSentToUpper)
attr title "Min SNIR, histogram"
bin	-inf	0
bin	510	0
bin	515	0
bin	520	0
bin	525	0
bin	530	0
bin	535	0
bin	540	0
bin	545	0
bin	550	0
bin	555	0
bin	560	0
bin	565	0
bin	570	0
bin	575	0
bin	580	8
bin	585	20
bin	590	28
bin	595	26
bin	600	24
bin	605	24
bin	610	34
bin	615	40
bin	620	44
bin	625	25
bin	630	27
bin	635	4
bin	640	10
bin	645	2
bin	650	3
bin	655	20
bin	660	42
bin	665	40
bin	670	37
bin	675	29
bin	680	0
bin	685	0
bin	690	5
bin	695	0
bin	700	0
bin	705	0
bin	710	0
bin	715	0
bin	720	0
bin	725	0
bin	730	0
bin	735	0
bin	740	55
bin	745	23
bin	750	3
bin	755	0
bin	760	0
bin	765	0
bin	770	0
bin	775	0
bin	780	0
bin	785	0
bin	790	0
bin	795	0
bin	800	0
bin	805	0
bin	810	0
bin	815	0
bin	820	0
bin	825	0
bin	830	0
bin	835	0
bin	840	0
bin	845	39
bin	850	62
bin	855	0
bin	860	0
bin	865	0
bin	870	0
bin	875	0
bin	880	0
bin	885	0
bin	890	0
bin	895	0
bin	900	0
bin	905	0
bin	910	0
bin	915	0
bin	920	0
bin	925	0
statistic ManetNet.nodoFijo1.wlan[0].radio packetErrorRate:histogram
field count 674
field mean 0
field stddev 0
field min 0
field max 0
field sum 0
field sqrsum 0
attr source packetErrorRate(packetSentToUpper)
attr title "Packet error rate, histogram"
bin	-inf	0
bin	-0.5	0
bin	-0.48	0
bin	-0.46	0
bin	-0.44	0
bin	-0.42	0
bin	-0.4	0
bin	-0.38	0
bin	-0.36	0
bin	-0.34	0
bin	-0.32	0
bin	-0.3	0
bin	-0.28	0
bin	-0.26	0
bin	-0.24	0
bin	-0.22	0
bin	-0.2	0
bin	-0.18	0
bin	-0.16	0
bin	-0.14	0
bin	-0.12	0
bin	-0.1	0
bin	-0.08	0
bin	-0.06	0
bin	-0.04	0
bin	-0.02	0
bin	0	674
bin	0.02	0
bin	0.04	0
bin	0.06	0
bin	0.08	0
bin	0.1	0
bin	0.12	0
bin	0.14	0
bin	0.16	0
bin	0.18	0
bin	0.2	0
bin	0.22	0
bin	0.24	0
bin	0.26	0
bin	0.28	0
bin	0.3	0
bin	0.32	0
bin	0.34	0
bin	0.36	0
bin	0.38	0
bin	0.4	0
bin	0.42	0
bin	0.44	0
bin	0.46	0
bin	0.48	0
bin	0.5	0
statistic ManetNet.nodoFijo1.wlan[0].radio bitErrorRate:histogram
field count 0
field mean -nan
field stddev nan
field min nan
field max nan
field sum 0
field sqrsum 0
attr source bitErrorRate(packetSentToUpper)
attr title "Bit error rate, histogram"
bin	-inf	0
bin	0	0
bin	1	0
statistic ManetNet.nodoFijo1.wlan[0].radio symbolErrorRate:histogram
field count 0
field mean -nan
field stddev nan
field min nan
field max nan
field sum 0
field sqrsum 0
attr source symbolErrorRate(packetSentToUpper)
attr title "Symbol error rate, histogram"
bin	-inf	0
bin	0	0
bin	1	0
scalar ManetNet.nodoFijo1.ipv4.ip packetDropAddressResolutionFailed:count 150
attr interpolationmode none
attr source packetDropReasonIsAddressResolutionFailed(packetDropped)
attr title "packet drop: address resolution failed, count"
scalar ManetNet.nodoFijo1.ipv4.ip packetDropAddressResolutionFailed:sum(packetBytes) 81000
attr interpolationmode none
attr source packetDropReasonIsAddressResolutionFailed(packetDropped)
attr title "packet drop: address resolution failed, sum(packetBytes)"
scalar ManetNet.nodoFijo1.ipv4.ip packetDropHopLimitReached:count 0
attr interpolationmode none
attr source packetDropReasonIsHopLimitReached(packetDropped)
attr title "packet drop: hop limit reached, count"
scalar ManetNet.nodoFijo1.ipv4.ip packetDropHopLimitReached:sum(packetBytes) 0
attr interpolationmode none
attr source packetDropReasonIsHopLimitReached(packetDropped)
attr title "packet drop: hop limit reached, sum(packetBytes)"
scalar ManetNet.nodoFijo1.ipv4.ip packetDropForwardingDisabled:count 0
attr interpolationmode none
attr source packetDropReasonIsForwardingDisabled(packetDropped)
attr title "packet drop: forwarding disabled, count"
scalar ManetNet.nodoFijo1.ipv4.ip packetDropForwardingDisabled:sum(packetBytes) 0
attr interpolationmode none
attr source packetDropReasonIsForwardingDisabled(packetDropped)
attr title "packet drop: forwarding disabled, sum(packetBytes)"
scalar ManetNet.nodoFijo1.ipv4.ip packetDropNoInterfaceFound:count 0
attr interpolationmode none
attr source packetDropReasonIsNoInterfaceFound(packetDropped)
attr title "packet drop: no interface found, count"
scalar ManetNet.nodoFijo1.ipv4.ip packetDropNoInterfaceFound:sum(packetBytes) 0
attr interpolationmode none
attr source packetDropReasonIsNoInterfaceFound(packetDropped)
attr title "packet drop: no interface found, sum(packetBytes)"
scalar ManetNet.nodoFijo1.ipv4.ip packetDropNoRouteFound:count 0
attr interpolationmode none
attr source packetDropReasonIsNoRouteFound(packetDropped)
attr title "packet drop: no route found, count"
scalar ManetNet.nodoFijo1.ipv4.ip packetDropNoRouteFound:sum(packetBytes) 0
attr interpolationmode none
attr source packetDropReasonIsNoRouteFound(packetDropped)
attr title "packet drop: no route found, sum(packetBytes)"
scalar ManetNet.nodoFijo1.ipv4.ip packetDropUndefined:count 0
attr interpolationmode none
attr source packetDropReasonIsUndefined(packetDropped)
attr title "packet drop: undefined, count"
scalar ManetNet.nodoFijo1.ipv4.ip packetDropUndefined:sum(packetBytes) 0
attr interpolationmode none
attr source packetDropReasonIsUndefined(packetDropped)
attr title "packet drop: undefined, sum(packetBytes)"
scalar ManetNet.nodoFijo1.ipv4.arp arpResolutionFailed:count 1
attr title "ARP failed resolutions, count"
scalar ManetNet.nodoFijo1.ipv4.arp arpResolutionCompleted:count 0
attr title "ARP completed resolutions, count"
scalar ManetNet.nodoFijo1.ipv4.arp arpResolutionInitiated:count 2
attr title "ARP initiated resolutions, count"
scalar ManetNet.nodoFijo1.ipv4.arp arpReplySent:count 0
attr source arpReplySent
attr title "ARP replies sent, count"
scalar ManetNet.nodoFijo1.ipv4.arp arpReplySent:sum(packetBytes) 0
attr source arpReplySent
attr title "ARP replies sent, sum(packetBytes)"
scalar ManetNet.nodoFijo1.ipv4.arp arpRequestSent:count 5
attr source arpRequestSent
attr title "ARP request sent, count"
scalar ManetNet.nodoFijo1.ipv4.arp arpRequestSent:sum(packetBytes) 140
attr source arpRequestSent
attr title "ARP request sent, sum(packetBytes)"
scalar ManetNet.nodoFijo1.udp packetReceived:count 0
attr interpolationmode none
attr source packetReceived
attr title "packets received, count"
scalar ManetNet.nodoFijo1.udp packetReceived:sum(packetBytes) 0
attr interpolationmode none
attr source packetReceived
attr title "packets received, sum(packetBytes)"
scalar ManetNet.nodoFijo1.udp packetSent:count 219
attr interpolationmode none
attr source packetSent
attr title "packets sent, count"
scalar ManetNet.nodoFijo1.udp packetSent:sum(packetBytes) 113880
attr interpolationmode none
attr source packetSent
attr title "packets sent, sum(packetBytes)"
scalar ManetNet.nodoFijo1.udp passedUpPk:count 0
attr interpolationmode none
attr source packetSentToUpper
attr title "packets passed up, count"
scalar ManetNet.nodoFijo1.udp droppedPkWrongPort:count 0
attr interpolationmode none
attr source packetDropReasonIsNoPortFound(packetDropped)
attr title "packets dropped (wrong port), count"
scalar ManetNet.nodoFijo1.udp droppedPkBadChecksum:count 0
attr interpolationmode none
attr source packetDropReasonIsIncorrectlyReceived(packetDropped)
attr title "packets dropped (checksum error), count"
scalar ManetNet.nodoFijo1.app[0] "packets sent" 219
scalar ManetNet.nodoFijo1.app[0] "packets received" 0
scalar ManetNet.nodoFijo1.app[0] packetReceived:count 0
attr interpolationmode none
attr source packetReceived
attr title "packets received, count"
scalar ManetNet.nodoFijo1.app[0] packetReceived:sum(packetBytes) 0
attr interpolationmode none
attr source packetReceived
attr title "packets received, sum(packetBytes)"
statistic ManetNet.nodoFijo1.app[0] rcvdPkLifetime:stats
field count 0
field mean -nan
field stddev nan
field min nan
field max nan
field sum 0
field sqrsum 0
attr interpolationmode none
attr source dataAge(packetReceived)
attr title "received packet lifetime, stats"
attr unit s
scalar ManetNet.nodoFijo1.app[0] packetSent:count 219
attr interpolationmode none
attr source packetSent
attr title "packets sent, count"
scalar ManetNet.nodoFijo1.app[0] packetSent:sum(packetBytes) 112128
attr interpolationmode none
attr source packetSent
attr title "packets sent, sum(packetBytes)"
scalar ManetNet.nodoFijo2.lo[0].lo rcvdPkFromHl:count 0
attr interpolationmode none
attr source packetReceivedFromUpper
attr title "packets received from higher layer, count"
scalar ManetNet.nodoFijo2.lo[0].lo rcvdPkFromHl:sum(packetBytes) 0
attr interpolationmode none
attr source packetReceivedFromUpper
attr title "packets received from higher layer, sum(packetBytes)"
scalar ManetNet.nodoFijo2.lo[0].lo passedUpPk:count 0
attr interpolationmode none
attr source packetSentToUpper
attr title "packets passed to higher layer, count"
scalar ManetNet.nodoFijo2.lo[0].lo passedUpPk:sum(packetBytes) 0
attr interpolationmode none
attr source packetSentToUpper
attr title "packets passed to higher layer, sum(packetBytes)"
scalar ManetNet.nodoFijo2.wlan[0].mac.dcf.channelAccess.pendingQueue packetPopped:count 0
attr interpolationmode none
attr title "packet popped, count"
scalar ManetNet.nodoFijo2.wlan[0].mac.dcf.channelAccess.pendingQueue packetPopped:sum(packetBytes) 0
attr interpolationmode none
attr title "packet popped, sum(packetBytes)"
statistic ManetNet.nodoFijo2.wlan[0].mac.dcf.channelAccess.pendingQueue queueingTime:histogram
field count 0
field mean -nan
field stddev nan
field min nan
field max nan
field sum 0
field sqrsum 0
attr interpolationmode none
attr source queueingTime(packetPopped)
attr title "queueing times, histogram"
attr unit s
bin	-inf	0
bin	0	0
bin	1	0
scalar ManetNet.nodoFijo2.wlan[0].mac.dcf.channelAccess.pendingQueue queueLength:max nan
attr interpolationmode sample-hold
attr source "count(packetPushed) - count(packetPopped) - count(packetRemoved) - count(packetDropped)"
attr title "queue length, max"
scalar ManetNet.nodoFijo2.wlan[0].mac.dcf.channelAccess.pendingQueue queueLength:timeavg -nan
attr interpolationmode sample-hold
attr source "count(packetPushed) - count(packetPopped) - count(packetRemoved) - count(packetDropped)"
attr title "queue length, timeavg"
scalar ManetNet.nodoFijo2.wlan[0].mac.dcf.channelAccess.pendingQueue packetPushed:count 0
attr interpolationmode none
attr title "packet pushed, count"
scalar ManetNet.nodoFijo2.wlan[0].mac.dcf.channelAccess.pendingQueue packetPushed:sum(packetBytes) 0
attr interpolationmode none
attr title "packet pushed, sum(packetBytes)"
scalar ManetNet.nodoFijo2.wlan[0].mac.dcf.channelAccess.pendingQueue packetDropQueueOverflow:count 0
attr interpolationmode none
attr source packetDropReasonIsQueueOverflow(packetDropped)
attr title "packet drops: queue overflow, count"
scalar ManetNet.nodoFijo2.wlan[0].mac.dcf.channelAccess.pendingQueue packetDropQueueOverflow:sum(packetBytes) 0
attr interpolationmode none
attr source packetDropReasonIsQueueOverflow(packetDropped)
attr title "packet drops: queue overflow, sum(packetBytes)"
scalar ManetNet.nodoFijo2.wlan[0].mac.dcf.channelAccess.pendingQueue packetRemoved:count 0
attr interpolationmode none
attr title "packets removed, count"
scalar ManetNet.nodoFijo2.wlan[0].mac.dcf.channelAccess.pendingQueue packetRemoved:sum(packetBytes) 0
attr interpolationmode none
attr title "packets removed, sum(packetBytes)"
statistic ManetNet.nodoFijo2.wlan[0].mac.dcf.channelAccess.inProgressFrames queueingTime:histogram
field count 0
field mean -nan
field stddev nan
field min nan
field max nan
field sum 0
field sqrsum 0
attr interpolationmode none
attr source queueingTime(packetDequeued)
attr title "queueing times, histogram"
bin	-inf	0
bin	0	0
bin	1	0
scalar ManetNet.nodoFijo2.wlan[0].mac.dcf.channelAccess.inProgressFrames queueLength:max nan
attr interpolationmode sample-hold
attr source "count(packetEnqueued) - count(packetDequeued)"
attr title "queue length, max"
scalar ManetNet.nodoFijo2.wlan[0].mac.dcf.channelAccess.inProgressFrames queueLength:timeavg -nan
attr interpolationmode sample-hold
attr source "count(packetEnqueued) - count(packetDequeued)"
attr title "queue length, timeavg"
scalar ManetNet.nodoFijo2.wlan[0].mac.dcf.channelAccess.contention channelAccessGranted:count 0
attr title "channel access granted, count"
scalar ManetNet.nodoFijo2.wlan[0].mac.dcf.channelAccess.contention stateChanged:count 2700
attr interpolationmode none
attr title "contention state changed, count"
scalar ManetNet.nodoFijo2.wlan[0].mac.dcf.channelAccess channelOwnershipChanged:count 0
attr interpolationmode sample-hold
attr title "channel ownership, count"
scalar ManetNet.nodoFijo2.wlan[0].mac.dcf.originatorMacDataService packetAggregated:count 0
attr title "packets aggregated, count"
scalar ManetNet.nodoFijo2.wlan[0].mac.dcf.originatorMacDataService packetFragmented:count 0
attr title "packets fragmented, count"
scalar ManetNet.nodoFijo2.wlan[0].mac.dcf.recipientMacDataService packetDeaggregated:count 0
attr title "packets deaggregated, count"
scalar ManetNet.nodoFijo2.wlan[0].mac.dcf.recipientMacDataService packetDefragmented:count 21
attr title "packets defragmented, count"
scalar ManetNet.nodoFijo2.wlan[0].mac.dcf.recipientMacDataService packetDropDuplicateDetected:count 0
attr interpolationmode none
attr source packetDropReasonIsDuplicateDetected(packetDropped)
attr title "packet drops: duplicate detected, count"
scalar ManetNet.nodoFijo2.wlan[0].mac.dcf.recipientMacDataService packetDropDuplicateDetected:sum(packetBytes) 0
attr interpolationmode none
attr source packetDropReasonIsDuplicateDetected(packetDropped)
attr title "packet drops: duplicate detected, sum(packetBytes)"
scalar ManetNet.nodoFijo2.wlan[0].mac.dcf.recoveryProcedure retryLimitReached:count 0
attr title "retry limit reached, count"
scalar ManetNet.nodoFijo2.wlan[0].mac.dcf frameSequenceFinished:count 0
attr title "finished frame sequences, count"
statistic ManetNet.nodoFijo2.wlan[0].mac.dcf frameSequenceDuration:histogram
field count 0
field mean -nan
field stddev nan
field min nan
field max nan
field sum 0
field sqrsum 0
attr source frameSequenceDuration(frameSequenceFinished)
attr title "frame sequence durations, histogram"
bin	-inf	0
bin	0	0
bin	1	0
statistic ManetNet.nodoFijo2.wlan[0].mac.dcf frameSequenceNumPackets:histogram
field count 0
field mean -nan
field stddev nan
field min nan
field max nan
field sum 0
field sqrsum 0
attr source frameSequenceNumPackets(frameSequenceFinished)
attr title "frame sequences: number of packets, histogram"
bin	-inf	0
bin	0	0
bin	1	0
scalar ManetNet.nodoFijo2.wlan[0].mac.dcf packetReceivedFromPeer:count 21
attr interpolationmode none
attr title "packets received, count"
scalar ManetNet.nodoFijo2.wlan[0].mac.dcf packetReceivedFromPeer:sum(packetBytes) 1344
attr interpolationmode none
attr title "packets received, sum(packetBytes)"
scalar ManetNet.nodoFijo2.wlan[0].mac.dcf packetReceivedFromPeerUnicast:count 0
attr interpolationmode none
attr source ieee80211Unicast(packetReceivedFromPeer)
attr title "packets received: unicast, count"
scalar ManetNet.nodoFijo2.wlan[0].mac.dcf packetReceivedFromPeerUnicast:sum(packetBytes) 0
attr interpolationmode none
attr source ieee80211Unicast(packetReceivedFromPeer)
attr title "packets received: unicast, sum(packetBytes)"
scalar ManetNet.nodoFijo2.wlan[0].mac.dcf packetReceivedFromPeerMulticast:count 21
attr interpolationmode none
attr source ieee80211Multicast(packetReceivedFromPeer)
attr title "packets received: multicast, count"
scalar ManetNet.nodoFijo2.wlan[0].mac.dcf packetReceivedFromPeerMulticast:sum(packetBytes) 1344
attr interpolationmode none
attr source ieee80211Multicast(packetReceivedFromPeer)
attr title "packets received: multicast, sum(packetBytes)"
scalar ManetNet.nodoFijo2.wlan[0].mac.dcf packetReceivedFromPeerBroadcast:count 21
attr interpolationmode none
attr source ieee80211Broadcast(packetReceivedFromPeer)
attr title "packets received: broadcast, count"
scalar ManetNet.nodoFijo2.wlan[0].mac.dcf packetReceivedFromPeerBroadcast:sum(packetBytes) 1344
attr interpolationmode none
attr source ieee80211Broadcast(packetReceivedFromPeer)
attr title "packets received: broadcast, sum(packetBytes)"
scalar ManetNet.nodoFijo2.wlan[0].mac.dcf packetReceivedFromPeerWithRetry:count 0
attr interpolationmode none
attr source ieee80211Retry(packetReceivedFromPeer)
attr title "packets received: with retry, count"
scalar ManetNet.nodoFijo2.wlan[0].mac.dcf packetReceivedFromPeerWithRetry:sum(packetBytes) 0
attr interpolationmode none
attr source ieee80211Retry(packetReceivedFromPeer)
attr title "packets received: with retry, sum(packetBytes)"
scalar ManetNet.nodoFijo2.wlan[0].mac.dcf packetReceivedFromPeerWithoutRetry:count 21
attr interpolationmode none
attr source ieee80211NotRetry(packetReceivedFromPeer)
attr title "packets received: without retry, count"
scalar ManetNet.nodoFijo2.wlan[0].mac.dcf packetReceivedFromPeerWithoutRetry:sum(packetBytes) 1344
attr interpolationmode none
attr source ieee80211NotRetry(packetReceivedFromPeer)
attr title "packets received: without retry, sum(packetBytes)"
scalar ManetNet.nodoFijo2.wlan[0].mac.dcf packetSentToPeer:count 0
attr interpolationmode none
attr title "packets sent, count"
scalar ManetNet.nodoFijo2.wlan[0].mac.dcf packetSentToPeer:sum(packetBytes) 0
attr interpolationmode none
attr title "packets sent, sum(packetBytes)"
scalar ManetNet.nodoFijo2.wlan[0].mac.dcf packetSentToPeerUnicast:count 0
attr interpolationmode none
attr source ieee80211Unicast(packetSentToPeer)
attr title "packets sent: unicast, count"
scalar ManetNet.nodoFijo2.wlan[0].mac.dcf packetSentToPeerUnicast:sum(packetBytes) 0
attr interpolationmode none
attr source ieee80211Unicast(packetSentToPeer)
attr title "packets sent: unicast, sum(packetBytes)"
scalar ManetNet.nodoFijo2.wlan[0].mac.dcf packetSentToPeerMulticast:count 0
attr interpolationmode none
attr source ieee80211Multicast(packetSentToPeer)
attr title "packets sent: multicast, count"
scalar ManetNet.nodoFijo2.wlan[0].mac.dcf packetSentToPeerMulticast:sum(packetBytes) 0
attr interpolationmode none
attr source ieee80211Multicast(packetSentToPeer)
attr title "packets sent: multicast, sum(packetBytes)"
scalar ManetNet.nodoFijo2.wlan[0].mac.dcf packetSentToPeerBroadcast:count 0
attr interpolationmode none
attr source ieee80211Broadcast(packetSentToPeer)
attr title "packets sent: broadcast , count"
scalar ManetNet.nodoFijo2.wlan[0].mac.dcf packetSentToPeerBroadcast:sum(packetBytes) 0
attr interpolationmode none
attr source ieee80211Broadcast(packetSentToPeer)
attr title "packets sent: broadcast , sum(packetBytes)"
scalar ManetNet.nodoFijo2.wlan[0].mac.dcf packetSentToPeerWithRetry:count 0
attr interpolationmode none
attr source ieee80211Retry(packetSentToPeer)
attr title "packets sent: with retry, count"
scalar ManetNet.nodoFijo2.wlan[0].mac.dcf packetSentToPeerWithRetry:sum(packetBytes) 0
attr interpolationmode none
attr source ieee80211Retry(packetSentToPeer)
attr title "packets sent: with retry, sum(packetBytes)"
scalar ManetNet.nodoFijo2.wlan[0].mac.dcf packetSentToPeerWithoutRetry:count 0
attr interpolationmode none
attr source ieee80211NotRetry(packetSentToPeer)
attr title "packets sent: without retry, count"
scalar ManetNet.nodoFijo2.wlan[0].mac.dcf packetSentToPeerWithoutRetry:sum(packetBytes) 0
attr interpolationmode none
attr source ieee80211NotRetry(packetSentToPeer)
attr title "packets sent: without retry, sum(packetBytes)"
scalar ManetNet.nodoFijo2.wlan[0].mac.dcf packetDrop:count 653
attr interpolationmode none
attr source packetDropped
attr title "packet drops, count"
scalar ManetNet.nodoFijo2.wlan[0].mac.dcf packetDrop:sum(packetBytes) 68944
attr interpolationmode none
attr source packetDropped
attr title "packet drops, sum(packetBytes)"
scalar ManetNet.nodoFijo2.wlan[0].mac.dcf packetDropNotAddressedToUs:count 653
attr interpolationmode none
attr source packetDropReasonIsNotAddressedToUs(packetDropped)
attr title "packet drops: not addressed to us, count"
scalar ManetNet.nodoFijo2.wlan[0].mac.dcf packetDropNotAddressedToUs:sum(packetBytes) 68944
attr interpolationmode none
attr source packetDropReasonIsNotAddressedToUs(packetDropped)
attr title "packet drops: not addressed to us, sum(packetBytes)"
scalar ManetNet.nodoFijo2.wlan[0].mac.dcf packetDropQueueOverflow:count 0
attr interpolationmode none
attr source packetDropReasonIsQueueOverflow(packetDropped)
attr title "packet drops: queue overflow, count"
scalar ManetNet.nodoFijo2.wlan[0].mac.dcf packetDropQueueOverflow:sum(packetBytes) 0
attr interpolationmode none
attr source packetDropReasonIsQueueOverflow(packetDropped)
attr title "packet drops: queue overflow, sum(packetBytes)"
scalar ManetNet.nodoFijo2.wlan[0].mac.dcf packetDropRetryLimitReached:count 0
attr interpolationmode none
attr source packetDropReasonIsRetryLimitReached(packetDropped)
attr title "packet drops: retry limit reached, count"
scalar ManetNet.nodoFijo2.wlan[0].mac.dcf packetDropRetryLimitReached:sum(packetBytes) 0
attr interpolationmode none
attr source packetDropReasonIsRetryLimitReached(packetDropped)
attr title "packet drops: retry limit reached, sum(packetBytes)"
scalar ManetNet.nodoFijo2.wlan[0].mac.dcf linkBroken:count 0
attr interpolationmode none
attr title "link breaks, count"
scalar ManetNet.nodoFijo2.wlan[0].mac packetReceivedFromLower:count 674
attr interpolationmode none
attr title "packets received from lower layer, count"
scalar ManetNet.nodoFijo2.wlan[0].mac packetReceivedFromLower:sum(packetBytes) 70288
attr interpolationmode none
attr title "packets received from lower layer, sum(packetBytes)"
scalar ManetNet.nodoFijo2.wlan[0].mac packetSentToLower:count 0
attr interpolationmode none
attr title "packets sent to lower layer, count"
scalar ManetNet.nodoFijo2.wlan[0].mac packetSentToLower:sum(packetBytes) 0
attr interpolationmode none
attr title "packets sent to lower layer, sum(packetBytes)"
scalar ManetNet.nodoFijo2.wlan[0].mac packetReceivedFromUpper:count 0
attr interpolationmode none
attr title "packets received from upper layer, count"
scalar ManetNet.nodoFijo2.wlan[0].mac packetReceivedFromUpper:sum(packetBytes) 0
attr interpolationmode none
attr title "packets received from upper layer, sum(packetBytes)"
scalar ManetNet.nodoFijo2.wlan[0].mac packetSentToUpper:count 21
attr interpolationmode none
attr title "packets sent to upper layer, count"
scalar ManetNet.nodoFijo2.wlan[0].mac packetSentToUpper:sum(packetBytes) 756
attr interpolationmode none
attr title "packets sent to upper layer, sum(packetBytes)"
scalar ManetNet.nodoFijo2.wlan[0].mac packetDrop:count 653
attr interpolationmode none
attr source packetDropped
attr title "packet drops, count"
scalar ManetNet.nodoFijo2.wlan[0].mac packetDrop:sum(packetBytes) 68944
attr interpolationmode none
attr source packetDropped
attr title "packet drops, sum(packetBytes)"
scalar ManetNet.nodoFijo2.wlan[0].mac packetDropIncorrectlyReceived:count 0
attr interpolationmode none
attr source packetDropReasonIsIncorrectlyReceived(packetDropped)
attr title "packet drops: incorrectly received, count"
scalar ManetNet.nodoFijo2.wlan[0].mac packetDropIncorrectlyReceived:sum(packetBytes) 0
attr interpolationmode none
attr source packetDropReasonIsIncorrectlyReceived(packetDropped)
attr title "packet drops: incorrectly received, sum(packetBytes)"
scalar ManetNet.nodoFijo2.wlan[0].mac packetDropNotAddressedToUs:count 653
attr interpolationmode none
attr source packetDropReasonIsNotAddressedToUs(packetDropped)
attr title "packet drops: not addressed to us, count"
scalar ManetNet.nodoFijo2.wlan[0].mac packetDropNotAddressedToUs:sum(packetBytes) 68944
attr interpolationmode none
attr source packetDropReasonIsNotAddressedToUs(packetDropped)
attr title "packet drops: not addressed to us, sum(packetBytes)"
scalar ManetNet.nodoFijo2.wlan[0].mac packetDropQueueOverflow:count 0
attr interpolationmode none
attr source packetDropReasonIsQueueOverflow(packetDropped)
attr title "packet drops: queue overflow, count"
scalar ManetNet.nodoFijo2.wlan[0].mac packetDropQueueOverflow:sum(packetBytes) 0
attr interpolationmode none
attr source packetDropReasonIsQueueOverflow(packetDropped)
attr title "packet drops: queue overflow, sum(packetBytes)"
scalar ManetNet.nodoFijo2.wlan[0].mac packetDropRetryLimitReached:count 0
attr interpolationmode none
attr source packetDropReasonIsRetryLimitReached(packetDropped)
attr title "packet drops: retry limit reached, count"
scalar ManetNet.nodoFijo2.wlan[0].mac packetDropRetryLimitReached:sum(packetBytes) 0
attr interpolationmode none
attr source packetDropReasonIsRetryLimitReached(packetDropped)
attr title "packet drops: retry limit reached, sum(packetBytes)"
scalar ManetNet.nodoFijo2.wlan[0].mac packetDropDuplicateDetected:count 0
attr interpolationmode none
attr source packetDropReasonIsDuplicateDetected(packetDropped)
attr title "packet drops: duplicate detected, count"
scalar ManetNet.nodoFijo2.wlan[0].mac packetDropDuplicateDetected:sum(packetBytes) 0
attr interpolationmode none
attr source packetDropReasonIsDuplicateDetected(packetDropped)
attr title "packet drops: duplicate detected, sum(packetBytes)"
scalar ManetNet.nodoFijo2.wlan[0].mac packetDropOther:count 0
attr interpolationmode none
attr source packetDropReasonIsOther(packetDropped)
attr title "packet drops: other, count"
scalar ManetNet.nodoFijo2.wlan[0].mac packetDropOther:sum(packetBytes) 0
attr interpolationmode none
attr source packetDropReasonIsOther(packetDropped)
attr title "packet drops: other, sum(packetBytes)"
scalar ManetNet.nodoFijo2.wlan[0].mac linkBroken:count 0
attr interpolationmode none
attr title "link breaks, count"
statistic ManetNet.nodoFijo2.wlan[0].radio radioChannel:histogram
field count 1
field mean 0
field stddev -nan
field min 0
field max 0
field sum 0
field sqrsum 0
attr interpolationmode sample-hold
attr source radioChannelChanged
attr title "Radio channel, histogram"
bin	-inf	0
bin	-0.5	0
bin	-0.48	0
bin	-0.46	0
bin	-0.44	0
bin	-0.42	0
bin	-0.4	0
bin	-0.38	0
bin	-0.36	0
bin	-0.34	0
bin	-0.32	0
bin	-0.3	0
bin	-0.28	0
bin	-0.26	0
bin	-0.24	0
bin	-0.22	0
bin	-0.2	0
bin	-0.18	0
bin	-0.16	0
bin	-0.14	0
bin	-0.12	0
bin	-0.1	0
bin	-0.08	0
bin	-0.06	0
bin	-0.04	0
bin	-0.02	0
bin	0	1
bin	0.02	0
bin	0.04	0
bin	0.06	0
bin	0.08	0
bin	0.1	0
bin	0.12	0
bin	0.14	0
bin	0.16	0
bin	0.18	0
bin	0.2	0
bin	0.22	0
bin	0.24	0
bin	0.26	0
bin	0.28	0
bin	0.3	0
bin	0.32	0
bin	0.34	0
bin	0.36	0
bin	0.38	0
bin	0.4	0
bin	0.42	0
bin	0.44	0
bin	0.46	0
bin	0.48	0
bin	0.5	0
scalar ManetNet.nodoFijo2.wlan[0].radio radioMode:count 3
attr interpolationmode sample-hold
attr source radioModeChanged
attr title "Radio mode, count"
scalar ManetNet.nodoFijo2.wlan[0].radio receptionState:count 1349
attr interpolationmode sample-hold
attr source receptionStateChanged
attr title "Radio reception state, count"
scalar ManetNet.nodoFijo2.wlan[0].radio transmissionState:count 0
attr interpolationmode sample-hold
attr source transmissionStateChanged
attr title "Radio transmission state, count"
statistic ManetNet.nodoFijo2.wlan[0].radio minSnir:histogram
field count 674
field mean 927.59406535629
field stddev 116.87215134302
field min 713.35901754074
field max 1099.7482065414
field sum 625198.40005014
field sqrsum 589122899.69493
attr source minimumSnir(packetSentToUpper)
attr title "Min SNIR, histogram"
bin	-inf	0
bin	610	0
bin	620	0
bin	630	0
bin	640	0
bin	650	0
bin	660	0
bin	670	0
bin	680	0
bin	690	0
bin	700	0
bin	710	60
bin	720	41
bin	730	0
bin	740	0
bin	750	0
bin	760	0
bin	770	0
bin	780	0
bin	790	0
bin	800	0
bin	810	8
bin	820	73
bin	830	0
bin	840	0
bin	850	0
bin	860	0
bin	870	5
bin	880	3
bin	890	27
bin	900	86
bin	910	32
bin	920	20
bin	930	0
bin	940	3
bin	950	2
bin	960	5
bin	970	5
bin	980	28
bin	990	26
bin	1000	25
bin	1010	46
bin	1020	27
bin	1030	26
bin	1040	22
bin	1050	24
bin	1060	16
bin	1070	24
bin	1080	28
bin	1090	12
bin	1100	0
bin	1110	0
bin	1120	0
bin	1130	0
bin	1140	0
bin	1150	0
bin	1160	0
bin	1170	0
bin	1180	0
bin	1190	0
bin	1200	0
statistic ManetNet.nodoFijo2.wlan[0].radio packetErrorRate:histogram
field count 674
field mean 0
field stddev 0
field min 0
field max 0
field sum 0
field sqrsum 0
attr source packetErrorRate(packetSentToUpper)
attr title "Packet error rate, histogram"
bin	-inf	0
bin	-0.5	0
bin	-0.48	0
bin	-0.46	0
bin	-0.44	0
bin	-0.42	0
bin	-0.4	0
bin	-0.38	0
bin	-0.36	0
bin	-0.34	0
bin	-0.32	0
bin	-0.3	0
bin	-0.28	0
bin	-0.26	0
bin	-0.24	0
bin	-0.22	0
bin	-0.2	0
bin	-0.18	0
bin	-0.16	0
bin	-0.14	0
bin	-0.12	0
bin	-0.1	0
bin	-0.08	0
bin	-0.06	0
bin	-0.04	0
bin	-0.02	0
bin	0	674
bin	0.02	0
bin	0.04	0
bin	0.06	0
bin	0.08	0
bin	0.1	0
bin	0.12	0
bin	0.14	0
bin	0.16	0
bin	0.18	0
bin	0.2	0
bin	0.22	0
bin	0.24	0
bin	0.26	0
bin	0.28	0
bin	0.3	0
bin	0.32	0
bin	0.34	0
bin	0.36	0
bin	0.38	0
bin	0.4	0
bin	0.42	0
bin	0.44	0
bin	0.46	0
bin	0.48	0
bin	0.5	0
statistic ManetNet.nodoFijo2.wlan[0].radio bitErrorRate:histogram
field count 0
field mean -nan
field stddev nan
field min nan
field max nan
field sum 0
field sqrsum 0
attr source bitErrorRate(packetSentToUpper)
attr title "Bit error rate, histogram"
bin	-inf	0
bin	0	0
bin	1	0
statistic ManetNet.nodoFijo2.wlan[0].radio symbolErrorRate:histogram
field count 0
field mean -nan
field stddev nan
field min nan
field max nan
field sum 0
field sqrsum 0
attr source symbolErrorRate(packetSentToUpper)
attr title "Symbol error rate, histogram"
bin	-inf	0
bin	0	0
bin	1	0
scalar ManetNet.nodoFijo2.ipv4.ip packetDropAddressResolutionFailed:count 0
attr interpolationmode none
attr source packetDropReasonIsAddressResolutionFailed(packetDropped)
attr title "packet drop: address resolution failed, count"
scalar ManetNet.nodoFijo2.ipv4.ip packetDropAddressResolutionFailed:sum(packetBytes) 0
attr interpolationmode none
attr source packetDropReasonIsAddressResolutionFailed(packetDropped)
attr title "packet drop: address resolution failed, sum(packetBytes)"
scalar ManetNet.nodoFijo2.ipv4.ip packetDropHopLimitReached:count 0
attr interpolationmode none
attr source packetDropReasonIsHopLimitReached(packetDropped)
attr title "packet drop: hop limit reached, count"
scalar ManetNet.nodoFijo2.ipv4.ip packetDropHopLimitReached:sum(packetBytes) 0
attr interpolationmode none
attr source packetDropReasonIsHopLimitReached(packetDropped)
attr title "packet drop: hop limit reached, sum(packetBytes)"
scalar ManetNet.nodoFijo2.ipv4.ip packetDropForwardingDisabled:count 0
attr interpolationmode none
attr source packetDropReasonIsForwardingDisabled(packetDropped)
attr title "packet drop: forwarding disabled, count"
scalar ManetNet.nodoFijo2.ipv4.ip packetDropForwardingDisabled:sum(packetBytes) 0
attr interpolationmode none
attr source packetDropReasonIsForwardingDisabled(packetDropped)
attr title "packet drop: forwarding disabled, sum(packetBytes)"
scalar ManetNet.nodoFijo2.ipv4.ip packetDropNoInterfaceFound:count 0
attr interpolationmode none
attr source packetDropReasonIsNoInterfaceFound(packetDropped)
attr title "packet drop: no interface found, count"
scalar ManetNet.nodoFijo2.ipv4.ip packetDropNoInterfaceFound:sum(packetBytes) 0
attr interpolationmode none
attr source packetDropReasonIsNoInterfaceFound(packetDropped)
attr title "packet drop: no interface found, sum(packetBytes)"
scalar ManetNet.nodoFijo2.ipv4.ip packetDropNoRouteFound:count 0
attr interpolationmode none
attr source packetDropReasonIsNoRouteFound(packetDropped)
attr title "packet drop: no route found, count"
scalar ManetNet.nodoFijo2.ipv4.ip packetDropNoRouteFound:sum(packetBytes) 0
attr interpolationmode none
attr source packetDropReasonIsNoRouteFound(packetDropped)
attr title "packet drop: no route found, sum(packetBytes)"
scalar ManetNet.nodoFijo2.ipv4.ip packetDropUndefined:count 0
attr interpolationmode none
attr source packetDropReasonIsUndefined(packetDropped)
attr title "packet drop: undefined, count"
scalar ManetNet.nodoFijo2.ipv4.ip packetDropUndefined:sum(packetBytes) 0
attr interpolationmode none
attr source packetDropReasonIsUndefined(packetDropped)
attr title "packet drop: undefined, sum(packetBytes)"
scalar ManetNet.nodoFijo2.ipv4.arp arpResolutionFailed:count 0
attr title "ARP failed resolutions, count"
scalar ManetNet.nodoFijo2.ipv4.arp arpResolutionCompleted:count 0
attr title "ARP completed resolutions, count"
scalar ManetNet.nodoFijo2.ipv4.arp arpResolutionInitiated:count 0
attr title "ARP initiated resolutions, count"
scalar ManetNet.nodoFijo2.ipv4.arp arpReplySent:count 0
attr source arpReplySent
attr title "ARP replies sent, count"
scalar ManetNet.nodoFijo2.ipv4.arp arpReplySent:sum(packetBytes) 0
attr source arpReplySent
attr title "ARP replies sent, sum(packetBytes)"
scalar ManetNet.nodoFijo2.ipv4.arp arpRequestSent:count 0
attr source arpRequestSent
attr title "ARP request sent, count"
scalar ManetNet.nodoFijo2.ipv4.arp arpRequestSent:sum(packetBytes) 0
attr source arpRequestSent
attr title "ARP request sent, sum(packetBytes)"
scalar ManetNet.nodoFijo2.udp packetReceived:count 0
attr interpolationmode none
attr source packetReceived
attr title "packets received, count"
scalar ManetNet.nodoFijo2.udp packetReceived:sum(packetBytes) 0
attr interpolationmode none
attr source packetReceived
attr title "packets received, sum(packetBytes)"
scalar ManetNet.nodoFijo2.udp packetSent:count 0
attr interpolationmode none
attr source packetSent
attr title "packets sent, count"
scalar ManetNet.nodoFijo2.udp packetSent:sum(packetBytes) 0
attr interpolationmode none
attr source packetSent
attr title "packets sent, sum(packetBytes)"
scalar ManetNet.nodoFijo2.udp passedUpPk:count 0
attr interpolationmode none
attr source packetSentToUpper
attr title "packets passed up, count"
scalar ManetNet.nodoFijo2.udp droppedPkWrongPort:count 0
attr interpolationmode none
attr source packetDropReasonIsNoPortFound(packetDropped)
attr title "packets dropped (wrong port), count"
scalar ManetNet.nodoFijo2.udp droppedPkBadChecksum:count 0
attr interpolationmode none
attr source packetDropReasonIsIncorrectlyReceived(packetDropped)
attr title "packets dropped (checksum error), count"
scalar ManetNet.nodoFijo2.app[0] packetReceived:count 0
attr interpolationmode none
attr source packetReceived
attr title "packets received, count"
scalar ManetNet.nodoFijo2.app[0] packetReceived:sum(packetBytes) 0
attr interpolationmode none
attr source packetReceived
attr title "packets received, sum(packetBytes)"
statistic ManetNet.nodoFijo2.app[0] endToEndDelay:histogram
field count 0
field mean -nan
field stddev nan
field min nan
field max nan
field sum 0
field sqrsum 0
attr interpolationmode none
attr source dataAge(packetReceived)
attr title "end-to-end delay, histogram"
attr unit s
bin	-inf	0
bin	0	0
bin	1	0
scalar ManetNet.nodoMovil[0].lo[0].lo rcvdPkFromHl:count 14
attr interpolationmode none
attr source packetReceivedFromUpper
attr title "packets received from higher layer, count"
scalar ManetNet.nodoMovil[0].lo[0].lo rcvdPkFromHl:sum(packetBytes) 2380
attr interpolationmode none
attr source packetReceivedFromUpper
attr title "packets received from higher layer, sum(packetBytes)"
scalar ManetNet.nodoMovil[0].lo[0].lo passedUpPk:count 14
attr interpolationmode none
attr source packetSentToUpper
attr title "packets passed to higher layer, count"
scalar ManetNet.nodoMovil[0].lo[0].lo passedUpPk:sum(packetBytes) 2380
attr interpolationmode none
attr source packetSentToUpper
attr title "packets passed to higher layer, sum(packetBytes)"
scalar ManetNet.nodoMovil[0].wlan[0].mac.dcf.channelAccess.pendingQueue packetPopped:count 53
attr interpolationmode none
attr title "packet popped, count"
scalar ManetNet.nodoMovil[0].wlan[0].mac.dcf.channelAccess.pendingQueue packetPopped:sum(packetBytes) 9496
attr interpolationmode none
attr title "packet popped, sum(packetBytes)"
statistic ManetNet.nodoMovil[0].wlan[0].mac.dcf.channelAccess.pendingQueue queueingTime:histogram
field count 53
field mean 0.00022673397750943
field stddev 0.00024821590610909
field min 0
field max 0.000978900808
field sum 0.012016900808
field sqrsum 5.9284187919031e-06
attr interpolationmode none
attr source queueingTime(packetPopped)
attr title "queueing times, histogram"
attr unit s
bin	-inf	0
bin	0	21
bin	2e-05	0
bin	4e-05	0
bin	6e-05	0
bin	8e-05	0
bin	0.0001	2
bin	0.00012	3
bin	0.00014	0
bin	0.00016	3
bin	0.00018	0
bin	0.0002	2
bin	0.00022	0
bin	0.00024	1
bin	0.00026	1
bin	0.00028	2
bin	0.0003	2
bin	0.00032	0
bin	0.00034	2
bin	0.00036	1
bin	0.00038	2
bin	0.0004	1
bin	0.00042	0
bin	0.00044	0
bin	0.00046	1
bin	0.00048	0
bin	0.0005	0
bin	0.00052	0
bin	0.00054	1
bin	0.00056	1
bin	0.00058	2
bin	0.0006	0
bin	0.00062	1
bin	0.00064	1
bin	0.00066	1
bin	0.00068	1
bin	0.0007	0
bin	0.00072	0
bin	0.00074	0
bin	0.00076	0
bin	0.00078	0
bin	0.0008	0
bin	0.00082	0
bin	0.00084	0
bin	0.00086	0
bin	0.00088	0
bin	0.0009	0
bin	0.00092	0
bin	0.00094	0
bin	0.00096	1
bin	0.00098	0
bin	0.001	0
bin	0.00102	0
bin	0.00104	0
bin	0.00106	0
bin	0.00108	0
bin	0.0011	0
bin	0.00112	0
bin	0.00114	0
bin	0.00116	0
bin	0.00118	0
bin	0.0012	0
bin	0.00122	0
bin	0.00124	0
scalar ManetNet.nodoMovil[0].wlan[0].mac.dcf.channelAccess.pendingQueue queueLength:max 1
attr interpolationmode sample-hold
attr source "count(packetPushed) - count(packetPopped) - count(packetRemoved) - count(packetDropped)"
attr title "queue length, max"
scalar ManetNet.nodoMovil[0].wlan[0].mac.dcf.channelAccess.pendingQueue queueLength:timeavg 0.0042508652083716
attr interpolationmode sample-hold
attr source "count(packetPushed) - count(packetPopped) - count(packetRemoved) - count(packetDropped)"
attr title "queue length, timeavg"
scalar ManetNet.nodoMovil[0].wlan[0].mac.dcf.channelAccess.pendingQueue packetPushed:count 53
attr interpolationmode none
attr title "packet pushed, count"
scalar ManetNet.nodoMovil[0].wlan[0].mac.dcf.channelAccess.pendingQueue packetPushed:sum(packetBytes) 9496
attr interpolationmode none
attr title "packet pushed, sum(packetBytes)"
scalar ManetNet.nodoMovil[0].wlan[0].mac.dcf.channelAccess.pendingQueue packetDropQueueOverflow:count 0
attr interpolationmode none
attr source packetDropReasonIsQueueOverflow(packetDropped)
attr title "packet drops: queue overflow, count"
scalar ManetNet.nodoMovil[0].wlan[0].mac.dcf.channelAccess.pendingQueue packetDropQueueOverflow:sum(packetBytes) 0
attr interpolationmode none
attr source packetDropReasonIsQueueOverflow(packetDropped)
attr title "packet drops: queue overflow, sum(packetBytes)"
scalar ManetNet.nodoMovil[0].wlan[0].mac.dcf.channelAccess.pendingQueue packetRemoved:count 0
attr interpolationmode none
attr title "packets removed, count"
scalar ManetNet.nodoMovil[0].wlan[0].mac.dcf.channelAccess.pendingQueue packetRemoved:sum(packetBytes) 0
attr interpolationmode none
attr title "packets removed, sum(packetBytes)"
statistic ManetNet.nodoMovil[0].wlan[0].mac.dcf.channelAccess.inProgressFrames queueingTime:histogram
field count 53
field mean 0.0001301146919434
field stddev 4.0874946713114e-05
field min 5e-05
field max 0.000178708106
field sum 0.006896078673
field sqrsum 9.8416073813241e-07
attr interpolationmode none
attr source queueingTime(packetDequeued)
attr title "queueing times, histogram"
bin	-inf	0
bin	1.6e-05	0
bin	1.8e-05	0
bin	2e-05	0
bin	2.2e-05	0
bin	2.4e-05	0
bin	2.6e-05	0
bin	2.8e-05	0
bin	3e-05	0
bin	3.2e-05	0
bin	3.4e-05	0
bin	3.6e-05	0
bin	3.8e-05	0
bin	4e-05	0
bin	4.2e-05	0
bin	4.4e-05	0
bin	4.6e-05	0
bin	4.8e-05	2
bin	5e-05	0
bin	5.2e-05	0
bin	5.4e-05	0
bin	5.6e-05	0
bin	5.8e-05	0
bin	6e-05	0
bin	6.2e-05	0
bin	6.4e-05	0
bin	6.6e-05	0
bin	6.8e-05	0
bin	7e-05	0
bin	7.2e-05	0
bin	7.4e-05	0
bin	7.6e-05	0
bin	7.8e-05	0
bin	8e-05	0
bin	8.2e-05	0
bin	8.4e-05	0
bin	8.6e-05	0
bin	8.8e-05	0
bin	9e-05	0
bin	9.2e-05	0
bin	9.4e-05	4
bin	9.6e-05	0
bin	9.8e-05	0
bin	0.0001	0
bin	0.000102	26
bin	0.000104	0
bin	0.000106	0
bin	0.000108	0
bin	0.00011	0
bin	0.000112	0
bin	0.000114	0
bin	0.000116	0
bin	0.000118	0
bin	0.00012	0
bin	0.000122	0
bin	0.000124	0
bin	0.000126	0
bin	0.000128	0
bin	0.00013	0
bin	0.000132	0
bin	0.000134	0
bin	0.000136	0
bin	0.000138	0
bin	0.00014	0
bin	0.000142	0
bin	0.000144	0
bin	0.000146	0
bin	0.000148	0
bin	0.00015	0
bin	0.000152	0
bin	0.000154	0
bin	0.000156	0
bin	0.000158	0
bin	0.00016	0
bin	0.000162	0
bin	0.000164	0
bin	0.000166	0
bin	0.000168	0
bin	0.00017	0
bin	0.000172	0
bin	0.000174	0
bin	0.000176	0
bin	0.000178	21
bin	0.00018	0
bin	0.000182	0
bin	0.000184	0
bin	0.000186	0
bin	0.000188	0
bin	0.00019	0
bin	0.000192	0
bin	0.000194	0
bin	0.000196	0
bin	0.000198	0
bin	0.0002	0
bin	0.000202	0
bin	0.000204	0
bin	0.000206	0
bin	0.000208	0
bin	0.00021	0
bin	0.000212	0
scalar ManetNet.nodoMovil[0].wlan[0].mac.dcf.channelAccess.inProgressFrames queueLength:max 1
attr interpolationmode sample-hold
attr source "count(packetEnqueued) - count(packetDequeued)"
attr title "queue length, max"
scalar ManetNet.nodoMovil[0].wlan[0].mac.dcf.channelAccess.inProgressFrames queueLength:timeavg 0.0024395176493768
attr interpolationmode sample-hold
attr source "count(packetEnqueued) - count(packetDequeued)"
attr title "queue length, timeavg"
scalar ManetNet.nodoMovil[0].wlan[0].mac.dcf.channelAccess.contention channelAccessGranted:count 53
attr title "channel access granted, count"
scalar ManetNet.nodoMovil[0].wlan[0].mac.dcf.channelAccess.contention stateChanged:count 2728
attr interpolationmode none
attr title "contention state changed, count"
scalar ManetNet.nodoMovil[0].wlan[0].mac.dcf.channelAccess channelOwnershipChanged:count 106
attr interpolationmode sample-hold
attr title "channel ownership, count"
scalar ManetNet.nodoMovil[0].wlan[0].mac.dcf.originatorMacDataService packetAggregated:count 0
attr title "packets aggregated, count"
scalar ManetNet.nodoMovil[0].wlan[0].mac.dcf.originatorMacDataService packetFragmented:count 0
attr title "packets fragmented, count"
scalar ManetNet.nodoMovil[0].wlan[0].mac.dcf.recipientMacDataService packetDeaggregated:count 0
attr title "packets deaggregated, count"
scalar ManetNet.nodoMovil[0].wlan[0].mac.dcf.recipientMacDataService packetDefragmented:count 73
attr title "packets defragmented, count"
scalar ManetNet.nodoMovil[0].wlan[0].mac.dcf.recipientMacDataService packetDropDuplicateDetected:count 0
attr interpolationmode none
attr source packetDropReasonIsDuplicateDetected(packetDropped)
attr title "packet drops: duplicate detected, count"
scalar ManetNet.nodoMovil[0].wlan[0].mac.dcf.recipientMacDataService packetDropDuplicateDetected:sum(packetBytes) 0
attr interpolationmode none
attr source packetDropReasonIsDuplicateDetected(packetDropped)
attr title "packet drops: duplicate detected, sum(packetBytes)"
scalar ManetNet.nodoMovil[0].wlan[0].mac.dcf.recoveryProcedure retryLimitReached:count 0
attr title "retry limit reached, count"
scalar ManetNet.nodoMovil[0].wlan[0].mac.dcf frameSequenceFinished:count 53
attr title "finished frame sequences, count"
statistic ManetNet.nodoMovil[0].wlan[0].mac.dcf frameSequenceDuration:histogram
field count 53
field mean 0.0001301146919434
field stddev 4.0874946713114e-05
field min 5e-05
field max 0.000178708106
field sum 0.006896078673
field sqrsum 9.8416073813241e-07
attr source frameSequenceDuration(frameSequenceFinished)
attr title "frame sequence durations, histogram"
bin	-inf	0
bin	1.6e-05	0
bin	1.8e-05	0
bin	2e-05	0
bin	2.2e-05	0
bin	2.4e-05	0
bin	2.6e-05	0
bin	2.8e-05	0
bin	3e-05	0
bin	3.2e-05	0
bin	3.4e-05	0
bin	3.6e-05	0
bin	3.8e-05	0
bin	4e-05	0
bin	4.2e-05	0
bin	4.4e-05	0
bin	4.6e-05	0
bin	4.8e-05	2
bin	5e-05	0
bin	5.2e-05	0
bin	5.4e-05	0
bin	5.6e-05	0
bin	5.8e-05	0
bin	6e-05	0
bin	6.2e-05	0
bin	6.4e-05	0
bin	6.6e-05	0
bin	6.8e-05	0
bin	7e-05	0
bin	7.2e-05	0
bin	7.4e-05	0
bin	7.6e-05	0
bin	7.8e-05	0
bin	8e-05	0
bin	8.2e-05	0
bin	8.4e-05	0
bin	8.6e-05	0
bin	8.8e-05	0
bin	9e-05	0
bin	9.2e-05	0
bin	9.4e-05	4
bin	9.6e-05	0
bin	9.8e-05	0
bin	0.0001	0
bin	0.000102	26
bin	0.000104	0
bin	0.000106	0
bin	0.000108	0
bin	0.00011	0
bin	0.000112	0
bin	0.000114	0
bin	0.000116	0
bin	0.000118	0
bin	0.00012	0
bin	0.000122	0
bin	0.000124	0
bin	0.000126	0
bin	0.000128	0
bin	0.00013	0
bin	0.000132	0
bin	0.000134	0
bin	0.000136	0
bin	0.000138	0
bin	0.00014	0
bin	0.000142	0
bin	0.000144	0
bin	0.000146	0
bin	0.000148	0
bin	0.00015	0
bin	0.000152	0
bin	0.000154	0
bin	0.000156	0
bin	0.000158	0
bin	0.00016	0
bin	0.000162	0
bin	0.000164	0
bin	0.000166	0
bin	0.000168	0
bin	0.00017	0
bin	0.000172	0
bin	0.000174	0
bin	0.000176	0
bin	0.000178	21
bin	0.00018	0
bin	0.000182	0
bin	0.000184	0
bin	0.000186	0
bin	0.000188	0
bin	0.00019	0
bin	0.000192	0
bin	0.000194	0
bin	0.000196	0
bin	0.000198	0
bin	0.0002	0
bin	0.000202	0
bin	0.000204	0
bin	0.000206	0
bin	0.000208	0
bin	0.00021	0
bin	0.000212	0
statistic ManetNet.nodoMovil[0].wlan[0].mac.dcf frameSequenceNumPackets:histogram
field count 53
field mean 1.9622641509434
field stddev 0.1923802475611
field min 1
field max 2
field sum 104
field sqrsum 206
attr source frameSequenceNumPackets(frameSequenceFinished)
attr title "frame sequences: number of packets, histogram"
bin	-inf	0
bin	0	0
bin	1	2
bin	2	51
bin	3	0
scalar ManetNet.nodoMovil[0].wlan[0].mac.dcf packetReceivedFromPeer:count 124
attr interpolationmode none
attr title "packets received, count"
scalar ManetNet.nodoMovil[0].wlan[0].mac.dcf packetReceivedFromPeer:sum(packetBytes) 12630
attr interpolationmode none
attr title "packets received, sum(packetBytes)"
scalar ManetNet.nodoMovil[0].wlan[0].mac.dcf packetReceivedFromPeerUnicast:count 100
attr interpolationmode none
attr source ieee80211Unicast(packetReceivedFromPeer)
attr title "packets received: unicast, count"
scalar ManetNet.nodoMovil[0].wlan[0].mac.dcf packetReceivedFromPeerUnicast:sum(packetBytes) 11094
attr interpolationmode none
attr source ieee80211Unicast(packetReceivedFromPeer)
attr title "packets received: unicast, sum(packetBytes)"
scalar ManetNet.nodoMovil[0].wlan[0].mac.dcf packetReceivedFromPeerMulticast:count 24
attr interpolationmode none
attr source ieee80211Multicast(packetReceivedFromPeer)
attr title "packets received: multicast, count"
scalar ManetNet.nodoMovil[0].wlan[0].mac.dcf packetReceivedFromPeerMulticast:sum(packetBytes) 1536
attr interpolationmode none
attr source ieee80211Multicast(packetReceivedFromPeer)
attr title "packets received: multicast, sum(packetBytes)"
scalar ManetNet.nodoMovil[0].wlan[0].mac.dcf packetReceivedFromPeerBroadcast:count 24
attr interpolationmode none
attr source ieee80211Broadcast(packetReceivedFromPeer)
attr title "packets received: broadcast, count"
scalar ManetNet.nodoMovil[0].wlan[0].mac.dcf packetReceivedFromPeerBroadcast:sum(packetBytes) 1536
attr interpolationmode none
attr source ieee80211Broadcast(packetReceivedFromPeer)
attr title "packets received: broadcast, sum(packetBytes)"
scalar ManetNet.nodoMovil[0].wlan[0].mac.dcf packetReceivedFromPeerWithRetry:count 0
attr interpolationmode none
attr source ieee80211Retry(packetReceivedFromPeer)
attr title "packets received: with retry, count"
scalar ManetNet.nodoMovil[0].wlan[0].mac.dcf packetReceivedFromPeerWithRetry:sum(packetBytes) 0
attr interpolationmode none
attr source ieee80211Retry(packetReceivedFromPeer)
attr title "packets received: with retry, sum(packetBytes)"
scalar ManetNet.nodoMovil[0].wlan[0].mac.dcf packetReceivedFromPeerWithoutRetry:count 124
attr interpolationmode none
attr source ieee80211NotRetry(packetReceivedFromPeer)
attr title "packets received: without retry, count"
scalar ManetNet.nodoMovil[0].wlan[0].mac.dcf packetReceivedFromPeerWithoutRetry:sum(packetBytes) 12630
attr interpolationmode none
attr source ieee80211NotRetry(packetReceivedFromPeer)
attr title "packets received: without retry, sum(packetBytes)"
scalar ManetNet.nodoMovil[0].wlan[0].mac.dcf packetSentToPeer:count 101
attr interpolationmode none
attr title "packets sent, count"
scalar ManetNet.nodoMovil[0].wlan[0].mac.dcf packetSentToPeer:sum(packetBytes) 10168
attr interpolationmode none
attr title "packets sent, sum(packetBytes)"
scalar ManetNet.nodoMovil[0].wlan[0].mac.dcf packetSentToPeerUnicast:count 99
attr interpolationmode none
attr source ieee80211Unicast(packetSentToPeer)
attr title "packets sent: unicast, count"
scalar ManetNet.nodoMovil[0].wlan[0].mac.dcf packetSentToPeerUnicast:sum(packetBytes) 10040
attr interpolationmode none
attr source ieee80211Unicast(packetSentToPeer)
attr title "packets sent: unicast, sum(packetBytes)"
scalar ManetNet.nodoMovil[0].wlan[0].mac.dcf packetSentToPeerMulticast:count 2
attr interpolationmode none
attr source ieee80211Multicast(packetSentToPeer)
attr title "packets sent: multicast, count"
scalar ManetNet.nodoMovil[0].wlan[0].mac.dcf packetSentToPeerMulticast:sum(packetBytes) 128
attr interpolationmode none
attr source ieee80211Multicast(packetSentToPeer)
attr title "packets sent: multicast, sum(packetBytes)"
scalar ManetNet.nodoMovil[0].wlan[0].mac.dcf packetSentToPeerBroadcast:count 2
attr interpolationmode none
attr source ieee80211Broadcast(packetSentToPeer)
attr title "packets sent: broadcast , count"
scalar ManetNet.nodoMovil[0].wlan[0].mac.dcf packetSentToPeerBroadcast:sum(packetBytes) 128
attr interpolationmode none
attr source ieee80211Broadcast(packetSentToPeer)
attr title "packets sent: broadcast , sum(packetBytes)"
scalar ManetNet.nodoMovil[0].wlan[0].mac.dcf packetSentToPeerWithRetry:count 0
attr interpolationmode none
attr source ieee80211Retry(packetSentToPeer)
attr title "packets sent: with retry, count"
scalar ManetNet.nodoMovil[0].wlan[0].mac.dcf packetSentToPeerWithRetry:sum(packetBytes) 0
attr interpolationmode none
attr source ieee80211Retry(packetSentToPeer)
attr title "packets sent: with retry, sum(packetBytes)"
scalar ManetNet.nodoMovil[0].wlan[0].mac.dcf packetSentToPeerWithoutRetry:count 101
attr interpolationmode none
attr source ieee80211NotRetry(packetSentToPeer)
attr title "packets sent: without retry, count"
scalar ManetNet.nodoMovil[0].wlan[0].mac.dcf packetSentToPeerWithoutRetry:sum(packetBytes) 10168
attr interpolationmode none
attr source ieee80211NotRetry(packetSentToPeer)
attr title "packets sent: without retry, sum(packetBytes)"
scalar ManetNet.nodoMovil[0].wlan[0].mac.dcf packetDrop:count 454
attr interpolationmode none
attr source packetDropped
attr title "packet drops, count"
scalar ManetNet.nodoMovil[0].wlan[0].mac.dcf packetDrop:sum(packetBytes) 47810
attr interpolationmode none
attr source packetDropped
attr title "packet drops, sum(packetBytes)"
scalar ManetNet.nodoMovil[0].wlan[0].mac.dcf packetDropNotAddressedToUs:count 454
attr interpolationmode none
attr source packetDropReasonIsNotAddressedToUs(packetDropped)
attr title "packet drops: not addressed to us, count"
scalar ManetNet.nodoMovil[0].wlan[0].mac.dcf packetDropNotAddressedToUs:sum(packetBytes) 47810
attr interpolationmode none
attr source packetDropReasonIsNotAddressedToUs(packetDropped)
attr title "packet drops: not addressed to us, sum(packetBytes)"
scalar ManetNet.nodoMovil[0].wlan[0].mac.dcf packetDropQueueOverflow:count 0
attr interpolationmode none
attr source packetDropReasonIsQueueOverflow(packetDropped)
attr title "packet drops: queue overflow, count"
scalar ManetNet.nodoMovil[0].wlan[0].mac.dcf packetDropQueueOverflow:sum(packetBytes) 0
attr interpolationmode none
attr source packetDropReasonIsQueueOverflow(packetDropped)
attr title "packet drops: queue overflow, sum(packetBytes)"
scalar ManetNet.nodoMovil[0].wlan[0].mac.dcf packetDropRetryLimitReached:count 0
attr interpolationmode none
attr source packetDropReasonIsRetryLimitReached(packetDropped)
attr title "packet drops: retry limit reached, count"
scalar ManetNet.nodoMovil[0].wlan[0].mac.dcf packetDropRetryLimitReached:sum(packetBytes) 0
attr interpolationmode none
attr source packetDropReasonIsRetryLimitReached(packetDropped)
attr title "packet drops: retry limit reached, sum(packetBytes)"
scalar ManetNet.nodoMovil[0].wlan[0].mac.dcf linkBroken:count 0
attr interpolationmode none
attr title "link breaks, count"
scalar ManetNet.nodoMovil[0].wlan[0].mac packetReceivedFromLower:count 578
attr interpolationmode none
attr title "packets received from lower layer, count"
scalar ManetNet.nodoMovil[0].wlan[0].mac packetReceivedFromLower:sum(packetBytes) 60440
attr interpolationmode none
attr title "packets received from lower layer, sum(packetBytes)"
scalar ManetNet.nodoMovil[0].wlan[0].mac packetSentToLower:count 102
attr interpolationmode none
attr title "packets sent to lower layer, count"
scalar ManetNet.nodoMovil[0].wlan[0].mac packetSentToLower:sum(packetBytes) 10182
attr interpolationmode none
attr title "packets sent to lower layer, sum(packetBytes)"
scalar ManetNet.nodoMovil[0].wlan[0].mac packetReceivedFromUpper:count 53
attr interpolationmode none
attr title "packets received from upper layer, count"
scalar ManetNet.nodoMovil[0].wlan[0].mac packetReceivedFromUpper:sum(packetBytes) 8012
attr interpolationmode none
attr title "packets received from upper layer, sum(packetBytes)"
scalar ManetNet.nodoMovil[0].wlan[0].mac packetSentToUpper:count 73
attr interpolationmode none
attr title "packets sent to upper layer, count"
scalar ManetNet.nodoMovil[0].wlan[0].mac packetSentToUpper:sum(packetBytes) 9872
attr interpolationmode none
attr title "packets sent to upper layer, sum(packetBytes)"
scalar ManetNet.nodoMovil[0].wlan[0].mac packetDrop:count 454
attr interpolationmode none
attr source packetDropped
attr title "packet drops, count"
scalar ManetNet.nodoMovil[0].wlan[0].mac packetDrop:sum(packetBytes) 47810
attr interpolationmode none
attr source packetDropped
attr title "packet drops, sum(packetBytes)"
scalar ManetNet.nodoMovil[0].wlan[0].mac packetDropIncorrectlyReceived:count 0
attr interpolationmode none
attr source packetDropReasonIsIncorrectlyReceived(packetDropped)
attr title "packet drops: incorrectly received, count"
scalar ManetNet.nodoMovil[0].wlan[0].mac packetDropIncorrectlyReceived:sum(packetBytes) 0
attr interpolationmode none
attr source packetDropReasonIsIncorrectlyReceived(packetDropped)
attr title "packet drops: incorrectly received, sum(packetBytes)"
scalar ManetNet.nodoMovil[0].wlan[0].mac packetDropNotAddressedToUs:count 454
attr interpolationmode none
attr source packetDropReasonIsNotAddressedToUs(packetDropped)
attr title "packet drops: not addressed to us, count"
scalar ManetNet.nodoMovil[0].wlan[0].mac packetDropNotAddressedToUs:sum(packetBytes) 47810
attr interpolationmode none
attr source packetDropReasonIsNotAddressedToUs(packetDropped)
attr title "packet drops: not addressed to us, sum(packetBytes)"
scalar ManetNet.nodoMovil[0].wlan[0].mac packetDropQueueOverflow:count 0
attr interpolationmode none
attr source packetDropReasonIsQueueOverflow(packetDropped)
attr title "packet drops: queue overflow, count"
scalar ManetNet.nodoMovil[0].wlan[0].mac packetDropQueueOverflow:sum(packetBytes) 0
attr interpolationmode none
attr source packetDropReasonIsQueueOverflow(packetDropped)
attr title "packet drops: queue overflow, sum(packetBytes)"
scalar ManetNet.nodoMovil[0].wlan[0].mac packetDropRetryLimitReached:count 0
attr interpolationmode none
attr source packetDropReasonIsRetryLimitReached(packetDropped)
attr title "packet drops: retry limit reached, count"
scalar ManetNet.nodoMovil[0].wlan[0].mac packetDropRetryLimitReached:sum(packetBytes) 0
attr interpolationmode none
attr source packetDropReasonIsRetryLimitReached(packetDropped)
attr title "packet drops: retry limit reached, sum(packetBytes)"
scalar ManetNet.nodoMovil[0].wlan[0].mac packetDropDuplicateDetected:count 0
attr interpolationmode none
attr source packetDropReasonIsDuplicateDetected(packetDropped)
attr title "packet drops: duplicate detected, count"
scalar ManetNet.nodoMovil[0].wlan[0].mac packetDropDuplicateDetected:sum(packetBytes) 0
attr interpolationmode none
attr source packetDropReasonIsDuplicateDetected(packetDropped)
attr title "packet drops: duplicate detected, sum(packetBytes)"
scalar ManetNet.nodoMovil[0].wlan[0].mac packetDropOther:count 0
attr interpolationmode none
attr source packetDropReasonIsOther(packetDropped)
attr title "packet drops: other, count"
scalar ManetNet.nodoMovil[0].wlan[0].mac packetDropOther:sum(packetBytes) 0
attr interpolationmode none
attr source packetDropReasonIsOther(packetDropped)
attr title "packet drops: other, sum(packetBytes)"
scalar ManetNet.nodoMovil[0].wlan[0].mac linkBroken:count 0
attr interpolationmode none
attr title "link breaks, count"
statistic ManetNet.nodoMovil[0].wlan[0].radio radioChannel:histogram
[...]
attr title "packets received: multicast, count"
scalar ManetNet.nodoMovil[6].wlan[0].mac.dcf packetReceivedFromPeerMulticast:sum(packetBytes) 1280
attr interpolationmode none
attr source ieee80211Multicast(packetReceivedFromPeer)
attr title "packets received: multicast, sum(packetBytes)"
scalar ManetNet.nodoMovil[6].wlan[0].mac.dcf packetReceivedFromPeerBroadcast:count 20
attr interpolationmode none
attr source ieee80211Broadcast(packetReceivedFromPeer)
attr title "packets received: broadcast, count"
scalar ManetNet.nodoMovil[6].wlan[0].mac.dcf packetReceivedFromPeerBroadcast:sum(packetBytes) 1280
attr interpolationmode none
attr source ieee80211Broadcast(packetReceivedFromPeer)
attr title "packets received: broadcast, sum(packetBytes)"
scalar ManetNet.nodoMovil[6].wlan[0].mac.dcf packetReceivedFromPeerWithRetry:count 0
attr interpolationmode none
attr source ieee80211Retry(packetReceivedFromPeer)
attr title "packets received: with retry, count"
scalar ManetNet.nodoMovil[6].wlan[0].mac.dcf packetReceivedFromPeerWithRetry:sum(packetBytes) 0
attr interpolationmode none
attr source ieee80211Retry(packetReceivedFromPeer)
attr title "packets received: with retry, sum(packetBytes)"
scalar ManetNet.nodoMovil[6].wlan[0].mac.dcf packetReceivedFromPeerWithoutRetry:count 96
attr interpolationmode none
attr source ieee80211NotRetry(packetReceivedFromPeer)
attr title "packets received: without retry, count"
scalar ManetNet.nodoMovil[6].wlan[0].mac.dcf packetReceivedFromPeerWithoutRetry:sum(packetBytes) 5374
attr interpolationmode none
attr source ieee80211NotRetry(packetReceivedFromPeer)
attr title "packets received: without retry, sum(packetBytes)"
scalar ManetNet.nodoMovil[6].wlan[0].mac.dcf packetSentToPeer:count 82
attr interpolationmode none
attr title "packets sent, count"
scalar ManetNet.nodoMovil[6].wlan[0].mac.dcf packetSentToPeer:sum(packetBytes) 12158
attr interpolationmode none
attr title "packets sent, sum(packetBytes)"
scalar ManetNet.nodoMovil[6].wlan[0].mac.dcf packetSentToPeerUnicast:count 76
attr interpolationmode none
attr source ieee80211Unicast(packetSentToPeer)
attr title "packets sent: unicast, count"
scalar ManetNet.nodoMovil[6].wlan[0].mac.dcf packetSentToPeerUnicast:sum(packetBytes) 11774
attr interpolationmode none
attr source ieee80211Unicast(packetSentToPeer)
attr title "packets sent: unicast, sum(packetBytes)"
scalar ManetNet.nodoMovil[6].wlan[0].mac.dcf packetSentToPeerMulticast:count 6
attr interpolationmode none
attr source ieee80211Multicast(packetSentToPeer)
attr title "packets sent: multicast, count"
scalar ManetNet.nodoMovil[6].wlan[0].mac.dcf packetSentToPeerMulticast:sum(packetBytes) 384
attr interpolationmode none
attr source ieee80211Multicast(packetSentToPeer)
attr title "packets sent: multicast, sum(packetBytes)"
scalar ManetNet.nodoMovil[6].wlan[0].mac.dcf packetSentToPeerBroadcast:count 6
attr interpolationmode none
attr source ieee80211Broadcast(packetSentToPeer)
attr title "packets sent: broadcast , count"
scalar ManetNet.nodoMovil[6].wlan[0].mac.dcf packetSentToPeerBroadcast:sum(packetBytes) 384
attr interpolationmode none
attr source ieee80211Broadcast(packetSentToPeer)
attr title "packets sent: broadcast , sum(packetBytes)"
scalar ManetNet.nodoMovil[6].wlan[0].mac.dcf packetSentToPeerWithRetry:count 0
attr interpolationmode none
attr source ieee80211Retry(packetSentToPeer)
attr title "packets sent: with retry, count"
scalar ManetNet.nodoMovil[6].wlan[0].mac.dcf packetSentToPeerWithRetry:sum(packetBytes) 0
attr interpolationmode none
attr source ieee80211Retry(packetSentToPeer)
attr title "packets sent: with retry, sum(packetBytes)"
scalar ManetNet.nodoMovil[6].wlan[0].mac.dcf packetSentToPeerWithoutRetry:count 82
attr interpolationmode none
attr source ieee80211NotRetry(packetSentToPeer)
attr title "packets sent: without retry, count"
scalar ManetNet.nodoMovil[6].wlan[0].mac.dcf packetSentToPeerWithoutRetry:sum(packetBytes) 12158
attr interpolationmode none
attr source ieee80211NotRetry(packetSentToPeer)
attr title "packets sent: without retry, sum(packetBytes)"
scalar ManetNet.nodoMovil[6].wlan[0].mac.dcf packetDrop:count 501
attr interpolationmode none
attr source packetDropped
attr title "packet drops, count"
scalar ManetNet.nodoMovil[6].wlan[0].mac.dcf packetDrop:sum(packetBytes) 53076
attr interpolationmode none
attr source packetDropped
attr title "packet drops, sum(packetBytes)"
scalar ManetNet.nodoMovil[6].wlan[0].mac.dcf packetDropNotAddressedToUs:count 501
attr interpolationmode none
attr source packetDropReasonIsNotAddressedToUs(packetDropped)
attr title "packet drops: not addressed to us, count"
scalar ManetNet.nodoMovil[6].wlan[0].mac.dcf packetDropNotAddressedToUs:sum(packetBytes) 53076
attr interpolationmode none
attr source packetDropReasonIsNotAddressedToUs(packetDropped)
attr title "packet drops: not addressed to us, sum(packetBytes)"
scalar ManetNet.nodoMovil[6].wlan[0].mac.dcf packetDropQueueOverflow:count 0
attr interpolationmode none
attr source packetDropReasonIsQueueOverflow(packetDropped)
attr title "packet drops: queue overflow, count"
scalar ManetNet.nodoMovil[6].wlan[0].mac.dcf packetDropQueueOverflow:sum(packetBytes) 0
attr interpolationmode none
attr source packetDropReasonIsQueueOverflow(packetDropped)
attr title "packet drops: queue overflow, sum(packetBytes)"
scalar ManetNet.nodoMovil[6].wlan[0].mac.dcf packetDropRetryLimitReached:count 0
attr interpolationmode none
attr source packetDropReasonIsRetryLimitReached(packetDropped)
attr title "packet drops: retry limit reached, count"
scalar ManetNet.nodoMovil[6].wlan[0].mac.dcf packetDropRetryLimitReached:sum(packetBytes) 0
attr interpolationmode none
attr source packetDropReasonIsRetryLimitReached(packetDropped)
attr title "packet drops: retry limit reached, sum(packetBytes)"
scalar ManetNet.nodoMovil[6].wlan[0].mac.dcf linkBroken:count 0
attr interpolationmode none
attr title "link breaks, count"
scalar ManetNet.nodoMovil[6].wlan[0].mac packetReceivedFromLower:count 597
attr interpolationmode none
attr title "packets received from lower layer, count"
scalar ManetNet.nodoMovil[6].wlan[0].mac packetReceivedFromLower:sum(packetBytes) 58450
attr interpolationmode none
attr title "packets received from lower layer, sum(packetBytes)"
scalar ManetNet.nodoMovil[6].wlan[0].mac packetSentToLower:count 82
attr interpolationmode none
attr title "packets sent to lower layer, count"
scalar ManetNet.nodoMovil[6].wlan[0].mac packetSentToLower:sum(packetBytes) 12158
attr interpolationmode none
attr title "packets sent to lower layer, sum(packetBytes)"
scalar ManetNet.nodoMovil[6].wlan[0].mac packetReceivedFromUpper:count 41
attr interpolationmode none
attr title "packets received from upper layer, count"
scalar ManetNet.nodoMovil[6].wlan[0].mac packetReceivedFromUpper:sum(packetBytes) 10436
attr interpolationmode none
attr title "packets received from upper layer, sum(packetBytes)"
scalar ManetNet.nodoMovil[6].wlan[0].mac packetSentToUpper:count 61
attr interpolationmode none
attr title "packets sent to upper layer, count"
scalar ManetNet.nodoMovil[6].wlan[0].mac packetSentToUpper:sum(packetBytes) 3176
attr interpolationmode none
attr title "packets sent to upper layer, sum(packetBytes)"
scalar ManetNet.nodoMovil[6].wlan[0].mac packetDrop:count 501
attr interpolationmode none
attr source packetDropped
attr title "packet drops, count"
scalar ManetNet.nodoMovil[6].wlan[0].mac packetDrop:sum(packetBytes) 53076
attr interpolationmode none
attr source packetDropped
attr title "packet drops, sum(packetBytes)"
scalar ManetNet.nodoMovil[6].wlan[0].mac packetDropIncorrectlyReceived:count 0
attr interpolationmode none
attr source packetDropReasonIsIncorrectlyReceived(packetDropped)
attr title "packet drops: incorrectly received, count"
scalar ManetNet.nodoMovil[6].wlan[0].mac packetDropIncorrectlyReceived:sum(packetBytes) 0
attr interpolationmode none
attr source packetDropReasonIsIncorrectlyReceived(packetDropped)
attr title "packet drops: incorrectly received, sum(packetBytes)"
scalar ManetNet.nodoMovil[6].wlan[0].mac packetDropNotAddressedToUs:count 501
attr interpolationmode none
attr source packetDropReasonIsNotAddressedToUs(packetDropped)
attr title "packet drops: not addressed to us, count"
scalar ManetNet.nodoMovil[6].wlan[0].mac packetDropNotAddressedToUs:sum(packetBytes) 53076
attr interpolationmode none
attr source packetDropReasonIsNotAddressedToUs(packetDropped)
attr title "packet drops: not addressed to us, sum(packetBytes)"
scalar ManetNet.nodoMovil[6].wlan[0].mac packetDropQueueOverflow:count 0
attr interpolationmode none
attr source packetDropReasonIsQueueOverflow(packetDropped)
attr title "packet drops: queue overflow, count"
scalar ManetNet.nodoMovil[6].wlan[0].mac packetDropQueueOverflow:sum(packetBytes) 0
attr interpolationmode none
attr source packetDropReasonIsQueueOverflow(packetDropped)
attr title "packet drops: queue overflow, sum(packetBytes)"
scalar ManetNet.nodoMovil[6].wlan[0].mac packetDropRetryLimitReached:count 0
attr interpolationmode none
attr source packetDropReasonIsRetryLimitReached(packetDropped)
attr title "packet drops: retry limit reached, count"
scalar ManetNet.nodoMovil[6].wlan[0].mac packetDropRetryLimitReached:sum(packetBytes) 0
attr interpolationmode none
attr source packetDropReasonIsRetryLimitReached(packetDropped)
attr title "packet drops: retry limit reached, sum(packetBytes)"
scalar ManetNet.nodoMovil[6].wlan[0].mac packetDropDuplicateDetected:count 0
attr interpolationmode none
attr source packetDropReasonIsDuplicateDetected(packetDropped)
attr title "packet drops: duplicate detected, count"
scalar ManetNet.nodoMovil[6].wlan[0].mac packetDropDuplicateDetected:sum(packetBytes) 0
attr interpolationmode none
attr source packetDropReasonIsDuplicateDetected(packetDropped)
attr title "packet drops: duplicate detected, sum(packetBytes)"
scalar ManetNet.nodoMovil[6].wlan[0].mac packetDropOther:count 0
attr interpolationmode none
attr source packetDropReasonIsOther(packetDropped)
attr title "packet drops: other, count"
scalar ManetNet.nodoMovil[6].wlan[0].mac packetDropOther:sum(packetBytes) 0
attr interpolationmode none
attr source packetDropReasonIsOther(packetDropped)
attr title "packet drops: other, sum(packetBytes)"
scalar ManetNet.nodoMovil[6].wlan[0].mac linkBroken:count 0
attr interpolationmode none
attr title "link breaks, count"
statistic ManetNet.nodoMovil[6].wlan[0].radio radioChannel:histogram
field count 1
field mean 0
field stddev -nan
field min 0
field max 0
field sum 0
field sqrsum 0
attr interpolationmode sample-hold
attr source radioChannelChanged
attr title "Radio channel, histogram"
bin	-inf	0
bin	-0.5	0
bin	-0.48	0
bin	-0.46	0
bin	-0.44	0
bin	-0.42	0
bin	-0.4	0
bin	-0.38	0
bin	-0.36	0
bin	-0.34	0
bin	-0.32	0
bin	-0.3	0
bin	-0.28	0
bin	-0.26	0
bin	-0.24	0
bin	-0.22	0
bin	-0.2	0
bin	-0.18	0
bin	-0.16	0
bin	-0.14	0
bin	-0.12	0
bin	-0.1	0
bin	-0.08	0
bin	-0.06	0
bin	-0.04	0
bin	-0.02	0
bin	0	1
bin	0.02	0
bin	0.04	0
bin	0.06	0
bin	0.08	0
bin	0.1	0
bin	0.12	0
bin	0.14	0
bin	0.16	0
bin	0.18	0
bin	0.2	0
bin	0.22	0
bin	0.24	0
bin	0.26	0
bin	0.28	0
bin	0.3	0
bin	0.32	0
bin	0.34	0
bin	0.36	0
bin	0.38	0
bin	0.4	0
bin	0.42	0
bin	0.44	0
bin	0.46	0
bin	0.48	0
bin	0.5	0
scalar ManetNet.nodoMovil[6].wlan[0].radio radioMode:count 167
attr interpolationmode sample-hold
attr source radioModeChanged
attr title "Radio mode, count"
scalar ManetNet.nodoMovil[6].wlan[0].radio receptionState:count 1360
attr interpolationmode sample-hold
attr source receptionStateChanged
attr title "Radio reception state, count"
scalar ManetNet.nodoMovil[6].wlan[0].radio transmissionState:count 328
attr interpolationmode sample-hold
attr source transmissionStateChanged
attr title "Radio transmission state, count"
statistic ManetNet.nodoMovil[6].wlan[0].radio minSnir:histogram
field count 597
field mean 131508.86041507
field stddev 172115.72778468
field min 662.57146803172
field max 839393.89703607
field sum 78510789.667795
field sqrsum 27980663435006
attr source minimumSnir(packetSentToUpper)
attr title "Min SNIR, histogram"
bin	-inf	0
bin	0	5
bin	20000	216
bin	40000	70
bin	60000	38
bin	80000	68
bin	100000	83
bin	120000	18
bin	140000	5
bin	160000	3
bin	180000	0
bin	200000	0
bin	220000	0
bin	240000	0
bin	260000	0
bin	280000	0
bin	300000	0
bin	320000	0
bin	340000	0
bin	360000	0
bin	380000	0
bin	400000	0
bin	420000	8
bin	440000	16
bin	460000	10
bin	480000	12
bin	500000	10
bin	520000	14
bin	540000	4
bin	560000	4
bin	580000	3
bin	600000	2
bin	620000	0
bin	640000	3
bin	660000	0
bin	680000	0
bin	700000	0
bin	720000	0
bin	740000	0
bin	760000	0
bin	780000	0
bin	800000	0
bin	820000	5
bin	840000	0
bin	860000	0
bin	880000	0
bin	900000	0
bin	920000	0
bin	940000	0
bin	960000	0
bin	980000	0
bin	1000000	0
bin	1020000	0
bin	1040000	0
bin	1060000	0
statistic ManetNet.nodoMovil[6].wlan[0].radio packetErrorRate:histogram
field count 597
field mean 0
field stddev 0
field min 0
field max 0
field sum 0
field sqrsum 0
attr source packetErrorRate(packetSentToUpper)
attr title "Packet error rate, histogram"
bin	-inf	0
bin	-0.5	0
bin	-0.48	0
bin	-0.46	0
bin	-0.44	0
bin	-0.42	0
bin	-0.4	0
bin	-0.38	0
bin	-0.36	0
bin	-0.34	0
bin	-0.32	0
bin	-0.3	0
bin	-0.28	0
bin	-0.26	0
bin	-0.24	0
bin	-0.22	0
bin	-0.2	0
bin	-0.18	0
bin	-0.16	0
bin	-0.14	0
bin	-0.12	0
bin	-0.1	0
bin	-0.08	0
bin	-0.06	0
bin	-0.04	0
bin	-0.02	0
bin	0	597
bin	0.02	0
bin	0.04	0
bin	0.06	0
bin	0.08	0
bin	0.1	0
bin	0.12	0
bin	0.14	0
bin	0.16	0
bin	0.18	0
bin	0.2	0
bin	0.22	0
bin	0.24	0
bin	0.26	0
bin	0.28	0
bin	0.3	0
bin	0.32	0
bin	0.34	0
bin	0.36	0
bin	0.38	0
bin	0.4	0
bin	0.42	0
bin	0.44	0
bin	0.46	0
bin	0.48	0
bin	0.5	0
statistic ManetNet.nodoMovil[6].wlan[0].radio bitErrorRate:histogram
field count 0
field mean -nan
field stddev nan
field min nan
field max nan
field sum 0
field sqrsum 0
attr source bitErrorRate(packetSentToUpper)
attr title "Bit error rate, histogram"
bin	-inf	0
bin	0	0
bin	1	0
statistic ManetNet.nodoMovil[6].wlan[0].radio symbolErrorRate:histogram
field count 0
field mean -nan
field stddev nan
field min nan
field max nan
field sum 0
field sqrsum 0
attr source symbolErrorRate(packetSentToUpper)
attr title "Symbol error rate, histogram"
bin	-inf	0
bin	0	0
bin	1	0
scalar ManetNet.nodoMovil[6].ipv4.ip packetDropAddressResolutionFailed:count 0
attr interpolationmode none
attr source packetDropReasonIsAddressResolutionFailed(packetDropped)
attr title "packet drop: address resolution failed, count"
scalar ManetNet.nodoMovil[6].ipv4.ip packetDropAddressResolutionFailed:sum(packetBytes) 0
attr interpolationmode none
attr source packetDropReasonIsAddressResolutionFailed(packetDropped)
attr title "packet drop: address resolution failed, sum(packetBytes)"
scalar ManetNet.nodoMovil[6].ipv4.ip packetDropHopLimitReached:count 0
attr interpolationmode none
attr source packetDropReasonIsHopLimitReached(packetDropped)
attr title "packet drop: hop limit reached, count"
scalar ManetNet.nodoMovil[6].ipv4.ip packetDropHopLimitReached:sum(packetBytes) 0
attr interpolationmode none
attr source packetDropReasonIsHopLimitReached(packetDropped)
attr title "packet drop: hop limit reached, sum(packetBytes)"
scalar ManetNet.nodoMovil[6].ipv4.ip packetDropForwardingDisabled:count 0
attr interpolationmode none
attr source packetDropReasonIsForwardingDisabled(packetDropped)
attr title "packet drop: forwarding disabled, count"
scalar ManetNet.nodoMovil[6].ipv4.ip packetDropForwardingDisabled:sum(packetBytes) 0
attr interpolationmode none
attr source packetDropReasonIsForwardingDisabled(packetDropped)
attr title "packet drop: forwarding disabled, sum(packetBytes)"
scalar ManetNet.nodoMovil[6].ipv4.ip packetDropNoInterfaceFound:count 0
attr interpolationmode none
attr source packetDropReasonIsNoInterfaceFound(packetDropped)
attr title "packet drop: no interface found, count"
scalar ManetNet.nodoMovil[6].ipv4.ip packetDropNoInterfaceFound:sum(packetBytes) 0
attr interpolationmode none
attr source packetDropReasonIsNoInterfaceFound(packetDropped)
attr title "packet drop: no interface found, sum(packetBytes)"
scalar ManetNet.nodoMovil[6].ipv4.ip packetDropNoRouteFound:count 0
attr interpolationmode none
attr source packetDropReasonIsNoRouteFound(packetDropped)
attr title "packet drop: no route found, count"
scalar ManetNet.nodoMovil[6].ipv4.ip packetDropNoRouteFound:sum(packetBytes) 0
attr interpolationmode none
attr source packetDropReasonIsNoRouteFound(packetDropped)
attr title "packet drop: no route found, sum(packetBytes)"
scalar ManetNet.nodoMovil[6].ipv4.ip packetDropUndefined:count 0
attr interpolationmode none
attr source packetDropReasonIsUndefined(packetDropped)
attr title "packet drop: undefined, count"
scalar ManetNet.nodoMovil[6].ipv4.ip packetDropUndefined:sum(packetBytes) 0
attr interpolationmode none
attr source packetDropReasonIsUndefined(packetDropped)
attr title "packet drop: undefined, sum(packetBytes)"
scalar ManetNet.nodoMovil[6].ipv4.arp arpResolutionFailed:count 0
attr title "ARP failed resolutions, count"
scalar ManetNet.nodoMovil[6].ipv4.arp arpResolutionCompleted:count 12
attr title "ARP completed resolutions, count"
scalar ManetNet.nodoMovil[6].ipv4.arp arpResolutionInitiated:count 6
attr title "ARP initiated resolutions, count"
scalar ManetNet.nodoMovil[6].ipv4.arp arpReplySent:count 0
attr source arpReplySent
attr title "ARP replies sent, count"
scalar ManetNet.nodoMovil[6].ipv4.arp arpReplySent:sum(packetBytes) 0
attr source arpReplySent
attr title "ARP replies sent, sum(packetBytes)"
scalar ManetNet.nodoMovil[6].ipv4.arp arpRequestSent:count 6
attr source arpRequestSent
attr title "ARP request sent, count"
scalar ManetNet.nodoMovil[6].ipv4.arp arpRequestSent:sum(packetBytes) 168
attr source arpRequestSent
attr title "ARP request sent, sum(packetBytes)"
scalar ManetNet.nodoMovil[6].udp packetReceived:count 0
attr interpolationmode none
attr source packetReceived
attr title "packets received, count"
scalar ManetNet.nodoMovil[6].udp packetReceived:sum(packetBytes) 0
attr interpolationmode none
attr source packetReceived
attr title "packets received, sum(packetBytes)"
scalar ManetNet.nodoMovil[6].udp packetSent:count 35
attr interpolationmode none
attr source packetSent
attr title "packets sent, count"
scalar ManetNet.nodoMovil[6].udp packetSent:sum(packetBytes) 9240
attr interpolationmode none
attr source packetSent
attr title "packets sent, sum(packetBytes)"
scalar ManetNet.nodoMovil[6].udp passedUpPk:count 0
attr interpolationmode none
attr source packetSentToUpper
attr title "packets passed up, count"
scalar ManetNet.nodoMovil[6].udp droppedPkWrongPort:count 0
attr interpolationmode none
attr source packetDropReasonIsNoPortFound(packetDropped)
attr title "packets dropped (wrong port), count"
scalar ManetNet.nodoMovil[6].udp droppedPkBadChecksum:count 0
attr interpolationmode none
attr source packetDropReasonIsIncorrectlyReceived(packetDropped)
attr title "packets dropped (checksum error), count"
scalar ManetNet.nodoMovil[6].app[0] "packets sent" 35
scalar ManetNet.nodoMovil[6].app[0] "packets received" 0
scalar ManetNet.nodoMovil[6].app[0] packetReceived:count 0
attr interpolationmode none
attr source packetReceived
attr title "packets received, count"
scalar ManetNet.nodoMovil[6].app[0] packetReceived:sum(packetBytes) 0
attr interpolationmode none
attr source packetReceived
attr title "packets received, sum(packetBytes)"
statistic ManetNet.nodoMovil[6].app[0] rcvdPkLifetime:stats
field count 0
field mean -nan
field stddev nan
field min nan
field max nan
field sum 0
field sqrsum 0
attr interpolationmode none
attr source dataAge(packetReceived)
attr title "received packet lifetime, stats"
attr unit s
scalar ManetNet.nodoMovil[6].app[0] packetSent:count 35
attr interpolationmode none
attr source packetSent
attr title "packets sent, count"
scalar ManetNet.nodoMovil[6].app[0] packetSent:sum(packetBytes) 8960
attr interpolationmode none
attr source packetSent
attr title "packets sent, sum(packetBytes)"

